@<TRIPOS>MOLECULE
CPD_04-b
 65 68 0 0 0
SMALL
GASTEIGER

@<TRIPOS>ATOM
      1 C1          3.9005   -6.3666   15.3061 C.ar    4  NAPHTHALENE44   -0.0998
      2 C2          4.0651   -5.1495   15.9725 C.ar    4  NAPHTHALENE44   -0.1313
      3 C3          5.3335   -4.5681   16.0570 C.ar    4  NAPHTHALENE44   -0.0990
      4 C4          6.4341   -5.2034   15.4742 C.ar    4  NAPHTHALENE44   -0.1362
      5 ****        6.7749   -9.3075   10.3935 H       2  APM222      0.1285
      6 ****        5.2368  -10.4885    8.6668 H       2  APM222      0.1150
      7 ****        6.1548   -9.1080    8.0564 H       2  APM222      0.1106
      8 ****        2.7967  -10.3795    8.5187 H       2  APM222      0.1338
      9 ****        5.1069   -6.8559    7.7470 H       2  APM222      0.1643
     10 ****        3.0733   -5.6776    6.9965 H       2  APM222      0.1645
     11 ****        0.8801   -6.7569    7.1677 H       2  APM222      0.1348
     12 ****        3.9868   -9.9510   11.0087 H       2  APM222      0.2288
     13 ****       -1.5840   -9.3722    7.0464 H       2  APM222      0.2727
     14 ****       -0.5356   -8.0688    6.4807 H       2  APM222      0.2953
     15 ****        0.8814  -10.8498    9.0928 H       2  APM222      0.2968
     16 ****       -0.7681  -10.9712    8.4730 H       2  APM222      0.2729
     17 ****        7.5534   -6.2231    8.4387 H       3  PIP333      0.0803
     18 ****        7.8266   -7.8151    9.1446 H       3  PIP333      0.0980
     19 ****        9.6715   -6.3131    9.7804 H       3  PIP333      0.0966
     20 ****        8.7319   -6.7887   11.2273 H       3  PIP333      0.0938
     21 ****        8.4267   -4.1439    9.6644 H       3  PIP333      0.0869
     22 C23         9.5482   -4.1330   11.5167 C.3     3  PIP333     -0.2062
     23 ****        6.8251   -3.4905   11.4750 H       3  PIP333      0.0956
     24 ****        7.0386   -5.0830   12.2569 H       3  PIP333      0.1009
     25 ****        4.9591   -5.0452   10.8996 H       3  PIP333      0.1264
     26 ****        5.8710   -4.6055    9.4447 H       3  PIP333      0.0717
     27 S           5.7060  -10.4191   12.6300 S.O2    1  TOS111      2.6340
     28 O1          6.9965  -11.0007   12.3112 O.2     1  TOS111     -0.8692
     29 O2          4.7394  -11.2178   13.3594 O.2     1  TOS111     -0.8684
     30 C5          7.3704   -7.0625   14.2229 C.ar    4  NAPHTHALENE44   -0.1323
     31 C6          7.2033   -8.2785   13.5552 C.ar    4  NAPHTHALENE44   -0.0609
     32 C7          5.9417   -8.8752   13.4779 C.ar    4  NAPHTHALENE44   -0.7307
     33 C8          4.8442   -8.2282   14.0518 C.ar    4  NAPHTHALENE44    0.0325
     34 C9          5.0019   -7.0091   14.7224 C.ar    4  NAPHTHALENE44   -0.0541
     35 C10         6.2706   -6.4218   14.8069 C.ar    4  NAPHTHALENE44    0.0096
     36 H1          2.9094   -6.8066   15.2486 H       4  NAPHTHALENE44    0.1359
     37 C           5.4919   -7.5642   10.5032 C.2     2  APM222      0.2722
     38 CA          5.7260   -9.0331   10.2115 C.3     2  APM222      0.0437
     39 CB          5.3456   -9.3954    8.7446 C.3     2  APM222     -0.1230
     40 CG          4.0710   -8.6853    8.2478 C.ar    2  APM222     -0.0554
     41 CD1         2.8323   -9.3377    8.2247 C.ar    2  APM222     -0.0748
     42 CD2         4.1523   -7.3671    7.7874 C.ar    2  APM222     -0.0544
     43 CE1         1.6633   -8.6745    7.8170 C.ar    2  APM222     -0.1469
     44 CE2         3.0023   -6.6954    7.3683 C.ar    2  APM222     -0.1081
     45 CZ          1.7618   -7.3329    7.4269 C.ar    2  APM222     -0.0848
     46 CF          0.3191   -9.3840    7.7896 C.3     2  APM222      0.3365
     47 O           4.4775   -7.3352   11.1426 O.2     2  APM222     -0.3712
     48 N           4.9665   -9.8304   11.1662 N.3     2  APM222     -0.8317
     49 NG1        -0.6631   -8.9084    7.0619 N.3     2  APM222     -0.3288
     50 NG2         0.1347  -10.4735    8.4935 N.3     2  APM222     -0.3253
     51 N1          6.3095   -6.5476   10.0962 N.am    3  PIP333     -0.3373
     52 C2          7.5745   -6.7772    9.3908 C.3     3  PIP333     -0.0204
     53 C3          8.6990   -6.2074   10.2907 C.3     3  PIP333     -0.1758
     54 C4          8.4282   -4.7117   10.6116 C.3     3  PIP333     -0.1067
     55 C5          7.0389   -4.5567   11.2892 C.3     3  PIP333     -0.1770
     56 C6          5.9309   -5.1630   10.3934 C.3     3  PIP333     -0.0122
     57 ****       10.5260   -4.2305   11.0195 H       3  PIP333      0.0810
     58 ****        9.5859   -4.6684   12.4783 H       3  PIP333      0.0753
     59 ****        9.3619   -3.0658   11.7137 H       3  PIP333      0.0813
     60 H2          3.2116   -4.6559   16.4272 H       4  NAPHTHALENE44    0.1407
     61 H3          5.4650   -3.6225   16.5764 H       4  NAPHTHALENE44    0.1413
     62 H4          7.4132   -4.7406   15.5456 H       4  NAPHTHALENE44    0.1407
     63 H5          8.3605   -6.6192   14.2785 H       4  NAPHTHALENE44    0.1418
     64 H6          8.0618   -8.7553   13.0979 H       4  NAPHTHALENE44    0.1470
     65 H8          3.8623   -8.6840   13.9717 H       4  NAPHTHALENE44    0.1406
@<TRIPOS>BOND
     1    27    32    1
     2    30    31   ar
     3    30    35   ar
     4    30    63    1
     5    35     4   ar
     6    35    34   ar
     7    34     1   ar
     8    38     5    1
     9    39     6    1
    10    39     7    1
    11    41     8    1
    12    42     9    1
    13    44    10    1
    14    45    11    1
    15    48    12    1
    16    49    13    1
    17    49    14    1
    18    50    15    1
    19    50    16    1
    20    52    17    1
    21    52    18    1
    22    53    19    1
    23    53    20    1
    24    54    21    1
    25    54    22    1
    26    55    23    1
    27    55    24    1
    28    56    25    1
    29    56    26    1
    30    34    33   ar
    31    27    29    2
    32    27    28    2
    33    33    32   ar
    34    33    65    1
    35    32    31   ar
    36    31    64    1
    37     1     2   ar
    38     1    36    1
    39    37    47    2
    40    37    38    1
    41    38    48    1
    42    38    39    1
    43    39    40    1
    44    40    42   ar
    45    40    41   ar
    46    41    43   ar
    47    43    46    1
    48    43    45   ar
    49    45    44   ar
    50    44    42   ar
    51    46    50    1
    52    46    49    1
    53    56    51    1
    54    51    52    1
    55    52    53    1
    56    53    54    1
    57    54    55    1
    58    55    56    1
    59    37    51   am
    60    48    27    1
    61    22    57    1
    62    22    58    1
    63    22    59    1
    64     2     3   ar
    65     2    60    1
    66     3     4   ar
    67     3    61    1
    68     4    62    1
