@<TRIPOS>MOLECULE
CPD_43-b
 69 73 0 0 0
SMALL
GASTEIGER

@<TRIPOS>ATOM
      1 C1          3.8456   -6.3317   15.2603 C.ar    4  NAPHTHALENE44   -0.1000
      2 C2          4.0351   -5.1197   15.9313 C.ar    4  NAPHTHALENE44   -0.1309
      3 C3          5.3164   -4.5709   16.0240 C.ar    4  NAPHTHALENE44   -0.0984
      4 C4          6.4067   -5.2421   15.4659 C.ar    4  NAPHTHALENE44   -0.1351
      5 ****        6.5124   -9.6649   10.4532 H       2  APM222      0.1177
      6 ****        5.1467  -10.5759    8.5413 H       2  APM222      0.1124
      7 ****        6.0719   -9.1458    8.0833 H       2  APM222      0.1138
      8 ****        2.7645  -10.4234    8.4766 H       2  APM222      0.1355
      9 ****        5.0513   -6.9104    7.7632 H       2  APM222      0.1640
     10 ****        3.0112   -5.6735    7.1336 H       2  APM222      0.1646
     11 ****        0.8369   -6.7253    7.2929 H       2  APM222      0.1359
     12 ****        3.7264  -10.0273   11.0242 H       2  APM222      0.2181
     13 ****       -1.6581   -9.3787    7.1089 H       2  APM222      0.2693
     14 ****       -0.6389   -8.0643    6.5642 H       2  APM222      0.2944
     15 ****        0.8144  -10.9365    9.0760 H       2  APM222      0.2956
     16 ****       -0.8163  -11.0315    8.4554 H       2  APM222      0.2695
     17 C1          8.5680   -8.4829    9.4440 C.3     3  CYCLOHEXANE_CHAIR33   -0.1543
     18 C2          7.6837   -7.2075    9.3118 C.3     3  CYCLOHEXANE_CHAIR33    0.0324
     19 C3          8.5409   -5.9980    9.7645 C.3     3  CYCLOHEXANE_CHAIR33   -0.1273
     20 C4          9.8001   -5.8200    8.8806 C.3     3  CYCLOHEXANE_CHAIR33   -0.1478
     21 C5         10.6903   -7.0810    9.0381 C.3     3  CYCLOHEXANE_CHAIR33   -0.1614
     22 C6          9.8949   -8.3507    8.6480 C.3     3  CYCLOHEXANE_CHAIR33   -0.1560
     23 H1          8.1093   -9.3688    8.9862 H       3  CYCLOHEXANE_CHAIR33    0.0766
     24 S           5.5169  -10.5025   12.7382 S.O2    1  TOS111      2.5895
     25 O1          6.7854  -11.1278   12.4099 O.2     1  TOS111     -0.8571
     26 O2          4.5452  -11.2419   13.5165 O.2     1  TOS111     -0.8530
     27 C5          7.3154   -7.1898   14.3128 C.ar    4  NAPHTHALENE44   -0.1313
     28 C6          7.1243   -8.4423   13.7166 C.ar    4  NAPHTHALENE44   -0.0553
     29 C7          5.8311   -8.9486   13.5504 C.ar    4  NAPHTHALENE44   -0.7182
     30 C8          4.7420   -8.2153   14.0210 C.ar    4  NAPHTHALENE44    0.0349
     31 C9          4.9349   -7.0055   14.7010 C.ar    4  NAPHTHALENE44   -0.0534
     32 C10         6.2265   -6.4766   14.8240 C.ar    4  NAPHTHALENE44    0.0113
     33 H1          2.8436   -6.7429   15.1841 H       4  NAPHTHALENE44    0.1358
     34 C           5.5458   -7.7551   10.5290 C.2     2  APM222      0.2634
     35 CA          5.5448   -9.2289   10.2145 C.3     2  APM222      0.0363
     36 CB          5.2452   -9.4935    8.7146 C.3     2  APM222     -0.1194
     37 CG          4.0023   -8.7345    8.2416 C.ar    2  APM222     -0.0564
     38 CD1         2.7647   -9.3762    8.2160 C.ar    2  APM222     -0.0806
     39 CD2         4.0930   -7.4069    7.8167 C.ar    2  APM222     -0.0508
     40 CE1         1.5939   -8.6953    7.8525 C.ar    2  APM222     -0.1443
     41 CE2         2.9426   -6.7080    7.4548 C.ar    2  APM222     -0.1095
     42 CZ          1.7002   -7.3383    7.5126 C.ar    2  APM222     -0.0853
     43 CF          0.2536   -9.4118    7.8237 C.3     2  APM222      0.3418
     44 O           4.5982   -7.3660   11.1947 O.2     2  APM222     -0.3728
     45 N           4.7104   -9.9274   11.1800 N.3     2  APM222     -0.8106
     46 NG1        -0.7417   -8.9156    7.1265 N.3     2  APM222     -0.3278
     47 NG2         0.0788  -10.5303    8.4895 N.3     2  APM222     -0.3262
     48 H2          8.7707   -8.6865   10.5066 H       3  CYCLOHEXANE_CHAIR33    0.1022
     49 N3          6.5011   -6.8744   10.1230 N.am    3  CYCLOHEXANE_CHAIR33   -0.3401
     50 H4          7.4150   -7.0822    8.2507 H       3  CYCLOHEXANE_CHAIR33    0.0787
     51 H5          8.8672   -6.1504   10.8094 H       3  CYCLOHEXANE_CHAIR33    0.1064
     52 C6          7.5406   -4.8208    9.7689 C.3     3  CYCLOHEXANE_CHAIR33   -0.1779
     53 H7         10.3633   -4.9269    9.1960 H       3  CYCLOHEXANE_CHAIR33    0.0948
     54 H2          3.1886   -4.6087   16.3786 H       4  NAPHTHALENE44    0.1405
     55 H3          5.4616   -3.6221   16.5328 H       4  NAPHTHALENE44    0.1413
     56 H4          7.3948   -4.7982   15.5384 H       4  NAPHTHALENE44    0.1403
     57 H5          8.3200   -6.7815   14.3787 H       4  NAPHTHALENE44    0.1419
     58 H6          7.9831   -9.0180   13.3895 H       4  NAPHTHALENE44    0.1499
     59 H8          3.7415   -8.5993   13.8559 H       4  NAPHTHALENE44    0.1391
     60 H8          9.5081   -5.6925    7.8259 H       3  CYCLOHEXANE_CHAIR33    0.0827
     61 H9         11.0343   -7.1733   10.0818 H       3  CYCLOHEXANE_CHAIR33    0.0886
     62 H10        11.5802   -6.9989    8.3920 H       3  CYCLOHEXANE_CHAIR33    0.0934
     63 H11         9.6711   -8.3093    7.5682 H       3  CYCLOHEXANE_CHAIR33    0.0796
     64 H12        10.5174   -9.2443    8.8309 H       3  CYCLOHEXANE_CHAIR33    0.0988
     65 ****        7.9138   -3.9254   10.2924 H       3  CYCLOHEXANE_CHAIR33    0.1095
     66 C22         6.3258   -5.4675   10.4764 C.3     3  CYCLOHEXANE_CHAIR33   -0.0055
     67 ****        7.2823   -4.5490    8.7320 H       3  CYCLOHEXANE_CHAIR33    0.0849
     68 ****        5.3707   -5.0499   10.1163 H       3  CYCLOHEXANE_CHAIR33    0.0950
     69 ****        6.3943   -5.3495   11.5706 H       3  CYCLOHEXANE_CHAIR33    0.1063
@<TRIPOS>BOND
     1    24    29    1
     2    27    28   ar
     3    27    32   ar
     4    27    57    1
     5    32     4   ar
     6    32    31   ar
     7    31     1   ar
     8    35     5    1
     9    36     6    1
    10    36     7    1
    11    38     8    1
    12    39     9    1
    13    41    10    1
    14    42    11    1
    15    45    12    1
    16    46    13    1
    17    46    14    1
    18    47    15    1
    19    47    16    1
    20    34    49   am
    21    17    18    1
    22    17    22    1
    23    17    23    1
    24    17    48    1
    25    22    21    1
    26    22    63    1
    27    22    64    1
    28    21    20    1
    29    21    61    1
    30    31    30   ar
    31    24    26    2
    32    24    25    2
    33    30    29   ar
    34    30    59    1
    35    29    28   ar
    36    28    58    1
    37     1     2   ar
    38     1    33    1
    39    34    44    2
    40    34    35    1
    41    35    45    1
    42    35    36    1
    43    36    37    1
    44    37    39   ar
    45    37    38   ar
    46    38    40   ar
    47    40    43    1
    48    40    42   ar
    49    42    41   ar
    50    41    39   ar
    51    43    47    1
    52    43    46    1
    53    21    62    1
    54    20    19    1
    55    20    53    1
    56    20    60    1
    57    19    18    1
    58    19    51    1
    59    45    24    1
    60    19    52    1
    61    52    67    1
    62     2     3   ar
    63     2    54    1
    64     3     4   ar
    65     3    55    1
    66     4    56    1
    67    52    66    1
    68    52    65    1
    69    66    49    1
    70    66    69    1
    71    66    68    1
    72    49    18    1
    73    18    50    1
