@<TRIPOS>MOLECULE
CPD_11-b
 67 70 0 0 0
SMALL
GASTEIGER

@<TRIPOS>ATOM
      1 C1          3.8993   -6.3636   15.2963 C.ar    4  NAPHTHALENE44   -0.1025
      2 C2          4.0684   -5.1489   15.9652 C.ar    4  NAPHTHALENE44   -0.1293
      3 C3          5.3371   -4.5695   16.0470 C.ar    4  NAPHTHALENE44   -0.0976
      4 C4          6.4338   -5.2056   15.4601 C.ar    4  NAPHTHALENE44   -0.1348
      5 ****        6.7685   -9.3131   10.4022 H       2  APM222      0.1273
      6 ****        5.2536  -10.4959    8.6521 H       2  APM222      0.1164
      7 ****        6.1694   -9.1125    8.0434 H       2  APM222      0.1105
      8 ****        2.8028  -10.3913    8.5093 H       2  APM222      0.1337
      9 ****        5.1137   -6.8591    7.7440 H       2  APM222      0.1641
     10 ****        3.0679   -5.6624    7.0592 H       2  APM222      0.1652
     11 ****        0.8719   -6.7609    7.2209 H       2  APM222      0.1352
     12 ****        3.9587   -9.9267   10.9852 H       2  APM222      0.2288
     13 ****       -1.5725   -9.3638    7.0674 H       2  APM222      0.2731
     14 ****       -0.5196   -8.0536    6.5190 H       2  APM222      0.2958
     15 ****        0.9095  -10.8695    9.0832 H       2  APM222      0.2969
     16 ****       -0.7470  -10.9876    8.4751 H       2  APM222      0.2734
     17 ****        7.6748   -6.1943    8.5106 H       3  PIP333      0.0961
     18 ****        7.8355   -7.8304    9.1445 H       3  PIP333      0.1068
     19 ****        9.6801   -6.4374   10.0612 H       3  PIP333      0.1304
     20 ****        8.5400   -6.8660   11.3556 H       3  PIP333      0.0894
     21 C           9.1917   -3.8434   10.4506 C.2     5  CO55        0.4013
     22 O           8.9782   -2.7196   10.8796 O.2     5  CO55       -0.4043
     23 ****        6.8128   -3.4870   11.3751 H       3  PIP333      0.1351
     24 ****        6.9782   -4.9837   12.3293 H       3  PIP333      0.1044
     25 ****        4.9620   -5.0539   10.8896 H       3  PIP333      0.1339
     26 ****        5.8945   -4.6202    9.4458 H       3  PIP333      0.0827
     27 S           5.6717  -10.4194   12.6264 S.O2    1  TOS111      2.6271
     28 O1          6.9578  -11.0138   12.3150 O.2     1  TOS111     -0.8670
     29 O2          4.6842  -11.1924   13.3534 O.2     1  TOS111     -0.8653
     30 C5          7.3637   -7.0725   14.2034 C.ar    4  NAPHTHALENE44   -0.1310
     31 C6          7.1926   -8.2922   13.5434 C.ar    4  NAPHTHALENE44   -0.0662
     32 C7          5.9250   -8.8762   13.4695 C.ar    4  NAPHTHALENE44   -0.7318
     33 C8          4.8303   -8.2245   14.0402 C.ar    4  NAPHTHALENE44    0.0307
     34 C9          4.9974   -7.0048   14.7088 C.ar    4  NAPHTHALENE44   -0.0549
     35 C10         6.2684   -6.4260   14.7910 C.ar    4  NAPHTHALENE44    0.0070
     36 H1          2.9084   -6.8031   15.2391 H       4  NAPHTHALENE44    0.1365
     37 C           5.4848   -7.5687   10.4788 C.2     2  APM222      0.2711
     38 CA          5.7251   -9.0355   10.1960 C.3     2  APM222      0.0433
     39 CB          5.3591   -9.4026    8.7284 C.3     2  APM222     -0.1227
     40 CG          4.0814   -8.6927    8.2442 C.ar    2  APM222     -0.0558
     41 CD1         2.8444   -9.3462    8.2258 C.ar    2  APM222     -0.0745
     42 CD2         4.1577   -7.3684    7.7955 C.ar    2  APM222     -0.0552
     43 CE1         1.6735   -8.6783    7.8341 C.ar    2  APM222     -0.1485
     44 CE2         3.0022   -6.6896    7.4058 C.ar    2  APM222     -0.1069
     45 CZ          1.7627   -7.3305    7.4631 C.ar    2  APM222     -0.0836
     46 CF          0.3322   -9.3895    7.8051 C.3     2  APM222      0.3351
     47 O           4.4580   -7.3367   11.0982 O.2     2  APM222     -0.3681
     48 N           4.9411   -9.8188   11.1426 N.3     2  APM222     -0.8292
     49 NG1        -0.6509   -8.9016    7.0880 N.3     2  APM222     -0.3281
     50 NG2         0.1552  -10.4888    8.4953 N.3     2  APM222     -0.3251
     51 N1          6.3138   -6.5576   10.0870 N.am    3  PIP333     -0.3419
     52 C2          7.6049   -6.7965    9.4295 C.3     3  PIP333     -0.0457
     53 C3          8.6589   -6.2722   10.4325 C.3     3  PIP333     -0.0212
     54 N4          8.3360   -4.8718   10.7283 N.am    3  PIP333     -0.3441
     55 C5          7.0304   -4.5637   11.3125 C.3     3  PIP333     -0.0152
     56 C6          5.9401   -5.1761   10.3971 C.3     3  PIP333     -0.0376
     57 ****       10.2782   -4.0861    9.6909 O.3     5  CO55       -0.2646
     58 ****       11.0840   -2.9239    9.3450 C.3     5  CO55       -0.0559
     59 ****       11.0062   -2.6985    8.2699 H       5  CO55        0.0849
     60 H2          3.2151   -4.6559   16.4211 H       4  NAPHTHALENE44    0.1414
     61 H3          5.4691   -3.6254   16.5671 H       4  NAPHTHALENE44    0.1437
     62 H4          7.4133   -4.7430   15.5299 H       4  NAPHTHALENE44    0.1443
     63 H5          8.3548   -6.6321   14.2553 H       4  NAPHTHALENE44    0.1445
     64 H6          8.0460   -8.7849   13.0903 H       4  NAPHTHALENE44    0.1471
     65 H8          3.8481   -8.6772   13.9586 H       4  NAPHTHALENE44    0.1421
     66 ****       12.1211   -3.2225    9.5424 H       5  CO55        0.0900
     67 ****       10.9109   -1.9849    9.8975 H       5  CO55        0.1191
@<TRIPOS>BOND
     1    27    32    1
     2    30    31   ar
     3    30    35   ar
     4    30    63    1
     5    35     4   ar
     6    35    34   ar
     7    34     1   ar
     8    38     5    1
     9    39     6    1
    10    39     7    1
    11    41     8    1
    12    42     9    1
    13    44    10    1
    14    45    11    1
    15    48    12    1
    16    49    13    1
    17    49    14    1
    18    50    15    1
    19    50    16    1
    20    52    17    1
    21    52    18    1
    22    53    19    1
    23    53    20    1
    24    21    22    2
    25    54    21   am
    26    55    23    1
    27    55    24    1
    28    56    25    1
    29    56    26    1
    30    34    33   ar
    31    27    29    2
    32    27    28    2
    33    33    32   ar
    34    33    65    1
    35    32    31   ar
    36    31    64    1
    37     1     2   ar
    38     1    36    1
    39    37    47    2
    40    37    38    1
    41    38    48    1
    42    38    39    1
    43    39    40    1
    44    40    42   ar
    45    40    41   ar
    46    41    43   ar
    47    43    46    1
    48    43    45   ar
    49    45    44   ar
    50    44    42   ar
    51    46    50    1
    52    46    49    1
    53    56    51    1
    54    51    52    1
    55    52    53    1
    56    53    54    1
    57    54    55    1
    58    55    56    1
    59    37    51   am
    60    48    27    1
    61    21    57    1
    62    57    58    1
    63    58    59    1
    64     2     3   ar
    65     2    60    1
    66     3     4   ar
    67     3    61    1
    68     4    62    1
    69    58    66    1
    70    58    67    1
