@<TRIPOS>MOLECULE
02
 50 53 0 0 0
SMALL
GASTEIGER

@<TRIPOS>ATOM
      1 ****        2.3150   -1.2424   -1.3914 C.3     1  WATER21111    0.0088
      2 ****        3.8480   -1.2194   -1.5035 C.3     1  WATER21111   -0.0133
      3 ****        4.4046    0.1964   -1.6885 C.3     1  WATER21111   -0.0116
      4 ****       -0.2017    3.2523    0.9329 O.2     1  WATER21111   -0.2895
      5 ****        3.8212    1.2180   -0.7023 C.3     1  WATER21111    0.0296
      6 C5          2.3383    1.0972   -0.3946 C.2     1  WATER21111   -0.0643
      7 C6          1.6412    2.2272   -0.1202 C.1     1  WATER21111   -0.1280
      8 C7          0.2252    2.2584    0.3526 C.1     1  WATER21111    0.2588
      9 ****       -0.6208    0.9789    0.1746 C.3     1  WATER21111   -0.0432
     10 ****        0.1303   -0.0854   -0.7096 C.3     1  WATER21111   -0.0080
     11 ****        1.6633   -0.2929   -0.3253 C.3     1  WATER21111   -0.0087
     12 ****       -0.7169   -1.3807   -0.8753 C.3     1  WATER21111    0.0005
     13 ****       -2.1867   -1.1571   -1.3017 C.3     1  WATER21111    0.0094
     14 ****       -2.9250   -0.0996   -0.4371 C.3     1  WATER21111   -0.1131
     15 ****       -2.0346    1.2071   -0.4356 C.3     1  WATER21111   -0.0149
     16 ****       -2.9944    2.3216    0.0529 C.3     1  WATER21111   -0.0014
     17 ****       -4.3895    1.9298   -0.4906 C.3     1  WATER21111   -0.0105
     18 C18        -4.2608    0.4856   -1.0816 C.3     1  WATER21111    0.1351
     19 ****       -3.2216   -0.6950    0.9696 C.3     1  WATER21111    0.0610
     20 ****        1.9113   -0.8116    1.1476 C.3     1  WATER21111    0.1807
     21 ****       -4.0999    0.5790   -2.1933 H       1  WATER21111   -0.0065
     22 ****        1.9128   -0.9837   -2.3999 H       1  WATER21111    0.0037
     23 ****        2.0138   -2.2977   -1.2115 H       1  WATER21111    0.0251
     24 ****        4.3163   -1.7014   -0.6162 H       1  WATER21111    0.0097
     25 ****        4.1480   -1.8471   -2.3740 H       1  WATER21111    0.0104
     26 ****        4.0450    2.2349   -1.1016 H       1  WATER21111    0.0129
     27 ****        4.2134    0.5390   -2.7316 H       1  WATER21111    0.0096
     28 ****        2.1143    3.2112   -0.1998 H       1  WATER21111    0.0769
     29 ****        1.6854   -2.4155    2.2226 H       1  WATER21111    0.1861
     30 O30        -5.4253   -0.2440   -0.8489 O.3     1  WATER21111   -0.3114
     31 ****       -0.7363    0.5798    1.2112 H       1  WATER21111    0.0382
     32 ****        0.1752    0.3581   -1.7412 H       1  WATER21111    0.0088
     33 ****       -0.2601   -2.0247   -1.6606 H       1  WATER21111    0.0072
     34 ****       -0.7090   -1.9871    0.0545 H       1  WATER21111    0.0242
     35 ****       -2.2111   -0.8647   -2.3766 H       1  WATER21111    0.0014
     36 ****       -2.7143   -2.1368   -1.2573 H       1  WATER21111    0.0051
     37 ****       -1.8352    1.4784   -1.5088 H       1  WATER21111    0.0058
     38 ****       -2.6947    3.3147   -0.3423 H       1  WATER21111    0.0190
     39 ****       -3.0141    2.4159    1.1581 H       1  WATER21111    0.0235
     40 ****       -5.1544    1.9964    0.3105 H       1  WATER21111    0.0302
     41 ****       -4.7164    2.6320   -1.2871 H       1  WATER21111    0.0112
     42 ****       -3.8186   -1.6274    0.8909 H       1  WATER21111   -0.0023
     43 ****       -2.3021   -0.9626    1.5273 H       1  WATER21111   -0.0103
     44 ****       -3.7887    0.0002    1.6198 H       1  WATER21111    0.0025
     45 ****        1.3764   -0.1498    1.8805 H       1  WATER21111   -0.0186
     46 O42         1.5297   -2.1401    1.3298 O.3     1  WATER21111   -0.3241
     47 ****        3.0008   -0.6943    1.4012 H       1  WATER21111   -0.0189
     48 ****        4.3744    1.1510    0.2658 H       1  WATER21111    0.0130
     49 ****       -5.4726   -1.0074   -1.4074 H       1  WATER21111    0.1803
     50 ****        5.5124    0.1781   -1.5752 H       1  WATER21111    0.0097
@<TRIPOS>BOND
     1     1    23    1
     2     1     2    1
     3     2    24    1
     4     2     3    1
     5     3    27    1
     6     3    50    1
     7     3     5    1
     8     5    26    1
     9     5    48    1
    10     5     6    1
    11     6     7    2
    12     7    28    1
    13     7     8    2
    14     8     9    1
    15     9    15    1
    16    15    37    1
    17    14    15    1
    18    14    19    1
    19    19    42    1
    20    19    44    1
    21    19    43    1
    22    14    18    1
    23    18    30    1
    24    30    49    1
    25    18    21    1
    26    17    18    1
    27    17    41    1
    28    17    40    1
    29    16    17    1
    30    15    16    1
    31    16    38    1
    32    16    39    1
    33    13    14    1
    34    13    35    1
    35    13    36    1
    36    12    13    1
    37    12    34    1
    38    12    33    1
    39    10    12    1
    40    10    32    1
    41     9    10    1
    42    10    11    1
    43    11    20    1
    44    20    45    1
    45    20    46    1
    46    46    29    1
    47    20    47    1
    48     6    11    1
    49     1    11    1
    50     9    31    1
    51     8     4    2
    52     2    25    1
    53     1    22    1
