@<TRIPOS>MOLECULE
06
 46 49 0 0 0
SMALL
GASTEIGER

@<TRIPOS>ATOM
      1 ****        2.3256   -1.2228   -1.4527 C.3     1  WATER21111    0.0091
      2 ****        3.8658   -1.2052   -1.5160 C.3     1  WATER21111    0.0141
      3 C3          4.4418    0.1707   -1.3671 C.2     1  WATER21111   -0.0680
      4 ****       -0.1865    3.1982    1.0267 O.2     1  WATER21111   -0.2909
      5 C5          3.7290    1.2096   -0.8858 C.1     1  WATER21111   -0.0696
      6 C5          2.3209    1.1108   -0.4551 C.1     1  WATER21111   -0.0248
      7 C6          1.6331    2.2340   -0.1255 C.1     1  WATER21111   -0.1261
      8 C7          0.2333    2.2364    0.3897 C.1     1  WATER21111    0.2593
      9 ****       -0.6143    0.9626    0.1738 C.3     1  WATER21111   -0.0430
     10 ****        0.1266   -0.0854   -0.7403 C.3     1  WATER21111   -0.0078
     11 ****        1.6609   -0.2891   -0.3769 C.3     1  WATER21111   -0.0132
     12 ****       -0.7211   -1.3787   -0.9181 C.3     1  WATER21111   -0.0027
     13 ****       -2.1999   -1.1507   -1.3151 C.3     1  WATER21111    0.0185
     14 ****       -2.9132   -0.1034   -0.4201 C.3     1  WATER21111   -0.1183
     15 ****       -2.0258    1.2038   -0.4321 C.3     1  WATER21111   -0.0161
     16 ****       -2.9787    2.3323    0.0420 C.3     1  WATER21111    0.0009
     17 ****       -4.3632    1.9478   -0.5313 C.3     1  WATER21111   -0.0535
     18 ****       -4.2621    0.4699   -0.9462 C.2     1  WATER21111    0.2322
     19 ****       -3.2276   -0.7141    0.9769 C.3     1  WATER21111    0.0534
     20 ****        1.9378   -0.8097    1.0894 C.3     1  WATER21111    0.1803
     21 ****       -5.1079   -0.1419   -1.5767 O.2     1  WATER21111   -0.2735
     22 ****        1.9543   -0.9264   -2.4623 H       1  WATER21111    0.0059
     23 ****        2.0067   -2.2781   -1.3122 H       1  WATER21111    0.0267
     24 ****        4.3006   -1.8704   -0.7341 H       1  WATER21111    0.0171
     25 ****        4.1867   -1.6392   -2.4915 H       1  WATER21111    0.0156
     26 ****        2.0995    3.2207   -0.2028 H       1  WATER21111    0.0788
     27 ****        1.8236   -2.4484    2.1297 H       1  WATER21111    0.1863
     28 ****       -0.7330    0.5340    1.1987 H       1  WATER21111    0.0381
     29 ****        0.1587    0.3741   -1.7654 H       1  WATER21111    0.0100
     30 ****       -0.2755   -2.0038   -1.7245 H       1  WATER21111    0.0101
     31 ****       -0.6941   -2.0036   -0.0010 H       1  WATER21111    0.0239
     32 ****       -2.2495   -0.8373   -2.3828 H       1  WATER21111    0.0097
     33 ****       -2.7285   -2.1291   -1.2714 H       1  WATER21111    0.0187
     34 ****       -1.8349    1.4633   -1.5101 H       1  WATER21111    0.0101
     35 ****       -2.6615    3.3215   -0.3482 H       1  WATER21111    0.0241
     36 ****       -3.0192    2.4262    1.1464 H       1  WATER21111    0.0261
     37 ****       -5.1690    2.0864    0.2197 H       1  WATER21111    0.0364
     38 ****       -4.6283    2.5824   -1.4034 H       1  WATER21111    0.0359
     39 ****       -3.9271   -1.5700    0.8778 H       1  WATER21111    0.0059
     40 ****       -2.3265   -1.0945    1.4955 H       1  WATER21111    0.0011
     41 ****       -3.7020    0.0159    1.6634 H       1  WATER21111   -0.0034
     42 ****        1.3965   -0.1677    1.8350 H       1  WATER21111   -0.0187
     43 O42         1.5854   -2.1474    1.2639 O.3     1  WATER21111   -0.3246
     44 ****        3.0271   -0.6653    1.3302 H       1  WATER21111   -0.0166
     45 ****        4.1994    2.1928   -0.7971 H       1  WATER21111    0.0609
     46 ****        5.4848    0.2917   -1.6667 H       1  WATER21111    0.0613
@<TRIPOS>BOND
     1     1     2    1
     2     2    24    1
     3     2    25    1
     4     2     3    1
     5     3    46    1
     6     3     5    2
     7     5    45    1
     8     5     6    2
     9     6     7    2
    10     7    26    1
    11     7     8    2
    12     8     4    2
    13     8     9    1
    14     9    28    1
    15     9    10    1
    16    10    29    1
    17    10    12    1
    18    12    31    1
    19    12    30    1
    20    12    13    1
    21    13    33    1
    22    13    14    1
    23    14    19    1
    24    19    39    1
    25    19    41    1
    26    19    40    1
    27    14    18    1
    28    17    18    1
    29    17    37    1
    30    17    38    1
    31    16    17    1
    32    16    36    1
    33    15    16    1
    34    15    34    1
    35    14    15    1
    36     9    15    1
    37    16    35    1
    38    18    21    2
    39    13    32    1
    40    10    11    1
    41     1    11    1
    42     6    11    1
    43    11    20    1
    44    20    44    1
    45    20    43    1
    46    43    27    1
    47    20    42    1
    48     1    22    1
    49     1    23    1
