@<TRIPOS>MOLECULE
07
 44 47 0 0 0
SMALL
GASTEIGER

@<TRIPOS>ATOM
      1 ****        2.3292   -1.1235   -1.6153 C.3     1  WATER21111    0.0142
      2 ****        3.8677   -1.2104   -1.5511 C.3     1  WATER21111    0.0102
      3 C3          4.5242    0.0494   -1.0731 C.2     1  WATER21111   -0.0600
      4 ****       -0.2565    3.4832    0.2170 O.2     1  WATER21111   -0.2847
      5 C5          3.8339    1.0763   -0.5370 C.1     1  WATER21111   -0.0790
      6 C5          2.3648    1.0819   -0.3927 C.1     1  WATER21111   -0.0187
      7 C6          1.7081    2.2473   -0.1700 C.1     1  WATER21111   -0.1240
      8 C7          0.2327    2.3777    0.0090 C.1     1  WATER21111    0.2574
      9 ****       -0.6014    1.0749   -0.0074 C.3     1  WATER21111   -0.0409
     10 ****        0.1088   -0.0183   -0.8935 C.3     1  WATER21111   -0.0097
     11 ****        1.6282   -0.2676   -0.4990 C.3     1  WATER21111   -0.0669
     12 ****       -0.7250   -1.3270   -1.0329 C.3     1  WATER21111   -0.0076
     13 ****       -2.2395   -1.1565   -1.2847 C.3     1  WATER21111    0.0203
     14 ****       -2.8939   -0.1215   -0.3358 C.3     1  WATER21111   -0.1219
     15 ****       -2.0750    1.2214   -0.4836 C.3     1  WATER21111   -0.0155
     16 ****       -3.0315    2.3217    0.0514 C.3     1  WATER21111    0.0021
     17 ****       -4.4511    1.8501   -0.3410 C.3     1  WATER21111   -0.0538
     18 ****       -4.3219    0.3667   -0.7203 C.2     1  WATER21111    0.2329
     19 ****       -3.0180   -0.7023    1.1030 C.3     1  WATER21111    0.0533
     20 C20         1.7266   -0.9247    0.9064 C.2     1  WATER21111    0.2689
     21 ****       -5.1989   -0.3095   -1.2305 O.2     1  WATER21111   -0.2712
     22 ****        2.0606   -0.6940   -2.6088 H       1  WATER21111    0.0093
     23 ****        1.9341   -2.1628   -1.6155 H       1  WATER21111    0.0238
     24 ****        4.1853   -2.0534   -0.8947 H       1  WATER21111    0.0279
     25 ****        4.2488   -1.4611   -2.5688 H       1  WATER21111    0.0186
     26 ****        4.3639    1.9680   -0.1916 H       1  WATER21111    0.0648
     27 ****        2.2628    3.1891   -0.1061 H       1  WATER21111    0.0814
     28 ****        1.5603   -0.2193    1.7489 H       1  WATER21111    0.0209
     29 ****       -0.6068    0.7470    1.0606 H       1  WATER21111    0.0330
     30 ****        0.1478    0.4162   -1.9270 H       1  WATER21111    0.0200
     31 ****       -0.3300   -1.9121   -1.8948 H       1  WATER21111    0.0136
     32 ****       -0.5899   -1.9762   -0.1405 H       1  WATER21111    0.0135
     33 ****       -2.4036   -0.8600   -2.3458 H       1  WATER21111    0.0125
     34 ****       -2.7259   -2.1520   -1.1787 H       1  WATER21111    0.0223
     35 ****       -2.0007    1.4446   -1.5830 H       1  WATER21111    0.0135
     36 ****       -2.8225    3.3077   -0.4117 H       1  WATER21111    0.0319
     37 ****       -2.9468    2.4623    1.1488 H       1  WATER21111    0.0210
     38 ****       -5.1700    1.9769    0.4955 H       1  WATER21111    0.0373
     39 ****       -4.8479    2.4397   -1.1945 H       1  WATER21111    0.0376
     40 ****       -3.6852   -1.5891    1.1085 H       1  WATER21111    0.0087
     41 ****       -2.0472   -1.0295    1.5229 H       1  WATER21111   -0.0025
     42 ****       -3.4409    0.0292    1.8205 H       1  WATER21111   -0.0019
     43 O42         1.9700   -2.0982    1.1291 O.2     1  WATER21111   -0.2767
     44 ****        5.6112    0.0897   -1.1701 H       1  WATER21111    0.0642
@<TRIPOS>BOND
     1     1    22    1
     2     1    23    1
     3     1     2    1
     4     2    24    1
     5     2     3    1
     6     3     5    2
     7     5     6    2
     8     6    11    1
     9     1    11    1
    10    11    20    1
    11    20    28    1
    12    20    43    2
    13    10    11    1
    14    10    30    1
    15    10    12    1
    16    12    31    1
    17    12    32    1
    18    12    13    1
    19    13    34    1
    20    13    14    1
    21    14    18    1
    22    18    21    2
    23    17    18    1
    24    17    39    1
    25    17    38    1
    26    16    17    1
    27    16    36    1
    28    16    37    1
    29    15    16    1
    30    15    35    1
    31    14    15    1
    32     9    15    1
    33     9    29    1
    34     9    10    1
    35     8     9    1
    36     7     8    2
    37     6     7    2
    38     7    27    1
    39     8     4    2
    40    14    19    1
    41    19    40    1
    42    19    42    1
    43    19    41    1
    44    13    33    1
    45     5    26    1
    46     3    44    1
    47     2    25    1
