@<TRIPOS>MOLECULE
09
 49 52 0 0 0
SMALL
GASTEIGER

@<TRIPOS>ATOM
      1 ****        2.3350   -1.1638   -1.5317 C.3     1  WATER21111    0.0119
      2 ****        3.8723   -1.2033   -1.5063 C.3     1  WATER21111   -0.0115
      3 ****        4.5083    0.1900   -1.4502 C.3     1  WATER21111   -0.0108
      4 ****       -0.0512    2.9707    0.8652 H       1  WATER21111    0.0091
      5 ****        3.8691    1.1091   -0.3988 C.3     1  WATER21111    0.0388
      6 C5          2.3517    1.0551   -0.3207 C.2     1  WATER21111   -0.1192
      7 C6          1.6744    2.2111   -0.1330 C.2     1  WATER21111   -0.0773
      8 C7          0.1879    2.3722   -0.0453 C.3     1  WATER21111    0.0316
      9 ****       -0.6005    1.0404    0.0038 C.3     1  WATER21111   -0.0156
     10 ****        0.1186   -0.0732   -0.8438 C.3     1  WATER21111   -0.0095
     11 ****        1.6361   -0.3137   -0.4109 C.3     1  WATER21111    0.0045
     12 ****       -0.7459   -1.3597   -1.0045 C.3     1  WATER21111   -0.0035
     13 ****       -2.2512   -1.1553   -1.3019 C.3     1  WATER21111    0.0207
     14 ****       -2.9148   -0.1177   -0.3598 C.3     1  WATER21111   -0.1162
     15 ****       -2.0644    1.2028   -0.4865 C.3     1  WATER21111   -0.0269
     16 ****       -2.9865    2.3276    0.0512 C.3     1  WATER21111   -0.0020
     17 ****       -4.4118    1.9041   -0.3741 C.3     1  WATER21111   -0.0519
     18 ****       -4.3199    0.4171   -0.7644 C.2     1  WATER21111    0.2324
     19 ****       -3.0810   -0.7065    1.0708 C.3     1  WATER21111    0.0552
     20 ****        1.7903   -0.9633    1.0244 C.3     1  WATER21111    0.1797
     21 ****       -5.2116   -0.2230   -1.2956 O.2     1  WATER21111   -0.2734
     22 ****        2.0321   -0.7617   -2.5278 H       1  WATER21111    0.0013
     23 ****        1.9735   -2.2152   -1.5160 H       1  WATER21111    0.0223
     24 ****        4.2352   -1.8206   -0.6542 H       1  WATER21111    0.0089
     25 ****        4.2269   -1.7288   -2.4232 H       1  WATER21111    0.0068
     26 ****        4.2055    2.1503   -0.6147 H       1  WATER21111    0.0044
     27 ****        4.4416    0.6724   -2.4526 H       1  WATER21111    0.0074
     28 ****        2.2076    3.1646   -0.0501 H       1  WATER21111    0.0519
     29 ****        1.6994   -2.6954    1.9024 H       1  WATER21111    0.1829
     30 ****       -0.6252    0.7310    1.0751 H       1  WATER21111    0.0170
     31 ****        0.1883    0.3484   -1.8824 H       1  WATER21111    0.0083
     32 ****       -0.3391   -1.9592   -1.8511 H       1  WATER21111    0.0094
     33 ****       -0.6692   -2.0103   -0.1086 H       1  WATER21111    0.0203
     34 ****       -2.3810   -0.8454   -2.3637 H       1  WATER21111    0.0086
     35 ****       -2.7609   -2.1415   -1.2205 H       1  WATER21111    0.0167
     36 ****       -1.9818    1.4282   -1.5858 H       1  WATER21111    0.0115
     37 ****       -2.7244    3.3136   -0.3858 H       1  WATER21111    0.0148
     38 ****       -2.9154    2.4494    1.1519 H       1  WATER21111    0.0151
     39 ****       -5.1433    2.0457    0.4487 H       1  WATER21111    0.0349
     40 ****       -4.7728    2.5122   -1.2302 H       1  WATER21111    0.0356
     41 ****       -3.7500   -1.5920    1.0517 H       1  WATER21111    0.0055
     42 ****       -2.1234   -1.0356    1.5177 H       1  WATER21111    0.0017
     43 ****       -3.5250    0.0210    1.7804 H       1  WATER21111   -0.0075
     44 ****        1.1010   -0.4526    1.7488 H       1  WATER21111   -0.0204
     45 O42         1.5642   -2.3405    1.0348 O.3     1  WATER21111   -0.3258
     46 ****        2.8203   -0.7554    1.4241 H       1  WATER21111   -0.0208
     47 ****        4.2900    0.8721    0.6073 H       1  WATER21111    0.0058
     48 ****        5.5966    0.0925   -1.2340 H       1  WATER21111    0.0058
     49 ****       -0.1288    2.9941   -0.9160 H       1  WATER21111    0.0116
@<TRIPOS>BOND
     1     1     2    1
     2     2     3    1
     3     3    48    1
     4     3    27    1
     5     3     5    1
     6     5     6    1
     7     6     7    2
     8     7    28    1
     9     7     8    1
    10     8     9    1
    11     9    15    1
    12    15    36    1
    13    15    16    1
    14    16    17    1
    15    17    39    1
    16    17    18    1
    17    14    18    1
    18    14    19    1
    19    19    42    1
    20    19    43    1
    21    19    41    1
    22    14    15    1
    23    13    14    1
    24    12    13    1
    25    12    32    1
    26    12    33    1
    27    10    12    1
    28     9    10    1
    29    10    11    1
    30     6    11    1
    31    11    20    1
    32    20    44    1
    33    20    45    1
    34    45    29    1
    35    20    46    1
    36     1    11    1
    37    10    31    1
    38    13    34    1
    39    13    35    1
    40    18    21    2
    41    17    40    1
    42    16    37    1
    43    16    38    1
    44     9    30    1
    45     8    49    1
    46     8     4    1
    47     5    47    1
    48     5    26    1
    49     2    24    1
    50     2    25    1
    51     1    22    1
    52     1    23    1
