@<TRIPOS>MOLECULE
10
 51 54 0 0 0
SMALL
GASTEIGER

@<TRIPOS>ATOM
      1 ****        2.3375   -1.1636   -1.5279 C.3     1  WATER21111    0.0122
      2 ****        3.8747   -1.2030   -1.5085 C.3     1  WATER21111   -0.0112
      3 ****        4.5063    0.1928   -1.4621 C.3     1  WATER21111   -0.0108
      4 ****       -0.0491    2.9784    0.8511 H       1  WATER21111    0.0095
      5 ****        3.8717    1.1106   -0.4063 C.3     1  WATER21111    0.0392
      6 C5          2.3544    1.0566   -0.3240 C.2     1  WATER21111   -0.1212
      7 C6          1.6757    2.2128   -0.1430 C.2     1  WATER21111   -0.0754
      8 C7          0.1890    2.3727   -0.0548 C.3     1  WATER21111    0.0312
      9 ****       -0.5988    1.0408    0.0061 C.3     1  WATER21111   -0.0167
     10 ****        0.1199   -0.0790   -0.8328 C.3     1  WATER21111   -0.0089
     11 ****        1.6404   -0.3135   -0.4060 C.3     1  WATER21111    0.0047
     12 ****       -0.7435   -1.3681   -0.9706 C.3     1  WATER21111    0.0002
     13 ****       -2.2455   -1.1646   -1.2821 C.3     1  WATER21111    0.0120
     14 ****       -2.9269   -0.1133   -0.3649 C.3     1  WATER21111   -0.1121
     15 ****       -2.0651    1.2023   -0.4813 C.3     1  WATER21111   -0.0256
     16 ****       -2.9819    2.3206    0.0739 C.3     1  WATER21111   -0.0042
     17 ****       -4.4195    1.8978   -0.3112 C.3     1  WATER21111   -0.0079
     18 C18        -4.3299    0.4406   -0.8815 C.3     1  WATER21111    0.1352
     19 ****       -3.0716   -0.6855    1.0739 C.3     1  WATER21111    0.0623
     20 ****        1.7989   -0.9594    1.0304 C.3     1  WATER21111    0.1795
     21 ****       -4.2855    0.5112   -2.0056 H       1  WATER21111   -0.0061
     22 ****        2.0308   -0.7624   -2.5233 H       1  WATER21111    0.0004
     23 ****        1.9766   -2.2151   -1.5107 H       1  WATER21111    0.0213
     24 ****        4.2426   -1.8158   -0.6554 H       1  WATER21111    0.0091
     25 ****        4.2258   -1.7318   -2.4248 H       1  WATER21111    0.0059
     26 ****        4.2086    2.1520   -0.6210 H       1  WATER21111    0.0040
     27 ****        4.4279    0.6726   -2.4648 H       1  WATER21111    0.0070
     28 ****        2.2088    3.1669   -0.0664 H       1  WATER21111    0.0510
     29 ****        1.7344   -2.6930    1.9080 H       1  WATER21111    0.1825
     30 O30        -5.4555   -0.2958   -0.5161 O.3     1  WATER21111   -0.3126
     31 ****       -0.6185    0.7415    1.0803 H       1  WATER21111    0.0174
     32 ****        0.1829    0.3304   -1.8765 H       1  WATER21111    0.0073
     33 ****       -0.3338   -1.9873   -1.8016 H       1  WATER21111    0.0062
     34 ****       -0.6727   -1.9989   -0.0601 H       1  WATER21111    0.0198
     35 ****       -2.3599   -0.8773   -2.3526 H       1  WATER21111    0.0008
     36 ****       -2.7555   -2.1507   -1.1926 H       1  WATER21111    0.0025
     37 ****       -1.9773    1.4396   -1.5776 H       1  WATER21111    0.0069
     38 ****       -2.7323    3.3072   -0.3704 H       1  WATER21111    0.0087
     39 ****       -2.8835    2.4456    1.1724 H       1  WATER21111    0.0132
     40 ****       -5.0968    1.9721    0.5645 H       1  WATER21111    0.0289
     41 ****       -4.8394    2.5770   -1.0836 H       1  WATER21111    0.0108
     42 ****       -3.6435   -1.6368    1.0703 H       1  WATER21111   -0.0034
     43 ****       -2.0967   -0.9111    1.5492 H       1  WATER21111   -0.0091
     44 ****       -3.5977    0.0077    1.7603 H       1  WATER21111   -0.0009
     45 ****        1.0956   -0.4624    1.7508 H       1  WATER21111   -0.0189
     46 O42         1.5996   -2.3410    1.0392 O.3     1  WATER21111   -0.3263
     47 ****        2.8223   -0.7324    1.4366 H       1  WATER21111   -0.0214
     48 ****        4.2964    0.8711    0.5976 H       1  WATER21111    0.0055
     49 ****       -5.5380   -1.0825   -1.0368 H       1  WATER21111    0.1808
     50 ****        5.5969    0.1004   -1.2558 H       1  WATER21111    0.0053
     51 ****       -0.1297    2.9876   -0.9299 H       1  WATER21111    0.0114
@<TRIPOS>BOND
     1     1    23    1
     2     1    22    1
     3     1    11    1
     4    10    11    1
     5    10    32    1
     6    10    12    1
     7    12    13    1
     8    13    36    1
     9    13    35    1
    10    13    14    1
    11    14    15    1
    12     9    15    1
    13     9    10    1
    14     9    31    1
    15     8     9    1
    16     8     4    1
    17     7     8    1
    18     7    28    1
    19     6     7    2
    20     5     6    1
    21     5    48    1
    22     5    26    1
    23     3     5    1
    24     3    27    1
    25     3    50    1
    26     2     3    1
    27     2    25    1
    28     2    24    1
    29     1     2    1
    30     6    11    1
    31     8    51    1
    32    15    16    1
    33    16    38    1
    34    16    17    1
    35    17    41    1
    36    17    40    1
    37    17    18    1
    38    14    18    1
    39    18    21    1
    40    18    30    1
    41    30    49    1
    42    16    39    1
    43    15    37    1
    44    14    19    1
    45    19    43    1
    46    19    42    1
    47    19    44    1
    48    12    34    1
    49    12    33    1
    50    11    20    1
    51    20    45    1
    52    20    47    1
    53    20    46    1
    54    46    29    1
