@<TRIPOS>MOLECULE
15
 45 48 0 0 0
SMALL
GASTEIGER

@<TRIPOS>ATOM
      1 ****        2.3222   -1.1794   -1.5394 C.3     1  WATER21111    0.0074
      2 ****        3.8638   -1.2152   -1.5368 C.3     1  WATER21111    0.0159
      3 C3          4.4948    0.1033   -1.2066 C.2     1  WATER21111   -0.0697
      4 ****       -0.2348    3.3669    0.6394 O.2     1  WATER21111   -0.2929
      5 C5          3.7984    1.1396   -0.6977 C.1     1  WATER21111   -0.0669
      6 C5          2.3489    1.0948   -0.4212 C.1     1  WATER21111   -0.0122
      7 C6          1.6798    2.2424   -0.1447 C.1     1  WATER21111   -0.1307
      8 C7          0.2318    2.3196    0.2009 C.1     1  WATER21111    0.2619
      9 ****       -0.6069    1.0275    0.0726 C.3     1  WATER21111   -0.0407
     10 ****        0.1184   -0.0386   -0.8331 C.3     1  WATER21111   -0.0117
     11 ****        1.6416   -0.2762   -0.4450 C.3     1  WATER21111   -0.0331
     12 ****       -0.7191   -1.3421   -0.9911 C.3     1  WATER21111   -0.0034
     13 ****       -2.2239   -1.1569   -1.2920 C.3     1  WATER21111    0.0202
     14 ****       -2.9037   -0.1146   -0.3681 C.3     1  WATER21111   -0.1202
     15 ****       -2.0545    1.2145   -0.4644 C.3     1  WATER21111   -0.0153
     16 ****       -3.0120    2.3290    0.0358 C.3     1  WATER21111    0.0021
     17 ****       -4.4196    1.8892   -0.4305 C.3     1  WATER21111   -0.0539
     18 ****       -4.3016    0.4058   -0.8157 C.2     1  WATER21111    0.2328
     19 ****       -3.1071   -0.7041    1.0582 C.3     1  WATER21111    0.0537
     20 ****        1.8144   -0.9322    0.9575 C.3     1  WATER21111    0.0484
     21 ****       -5.1674   -0.2476   -1.3730 O.2     1  WATER21111   -0.2737
     22 ****        1.9989   -0.8354   -2.5489 H       1  WATER21111    0.0089
     23 ****        1.9658   -2.2289   -1.4413 H       1  WATER21111    0.0097
     24 ****        4.2333   -1.9838   -0.8181 H       1  WATER21111    0.0153
     25 ****        4.2121   -1.5512   -2.5413 H       1  WATER21111    0.0151
     26 ****        2.2032    3.2038   -0.1471 H       1  WATER21111    0.0778
     27 ****       -0.6654    0.6450    1.1207 H       1  WATER21111    0.0365
     28 ****        0.1546    0.4112   -1.8607 H       1  WATER21111    0.0132
     29 ****       -0.3058   -1.9388   -1.8363 H       1  WATER21111    0.0083
     30 ****       -0.6154   -1.9855   -0.0900 H       1  WATER21111    0.0085
     31 ****       -2.3500   -0.8615   -2.3586 H       1  WATER21111    0.0117
     32 ****       -2.7228   -2.1478   -1.2007 H       1  WATER21111    0.0185
     33 ****       -1.9279    1.4487   -1.5571 H       1  WATER21111    0.0110
     34 ****       -2.7560    3.3138   -0.4063 H       1  WATER21111    0.0280
     35 ****       -2.9816    2.4577    1.1371 H       1  WATER21111    0.0245
     36 ****       -5.1755    2.0235    0.3716 H       1  WATER21111    0.0365
     37 ****       -4.7636    2.4932   -1.2966 H       1  WATER21111    0.0365
     38 ****       -3.8014   -1.5694    1.0266 H       1  WATER21111    0.0060
     39 ****       -2.1657   -1.0660    1.5150 H       1  WATER21111   -0.0014
     40 ****       -3.5378    0.0335    1.7650 H       1  WATER21111   -0.0019
     41 ****        1.2946   -0.3650    1.7548 H       1  WATER21111   -0.0030
     42 H42         1.4252   -1.9695    0.9834 H       1  WATER21111   -0.0004
     43 ****        2.8811   -0.9840    1.2571 H       1  WATER21111   -0.0005
     44 ****        4.3121    2.0775   -0.4689 H       1  WATER21111    0.0617
     45 ****        5.5676    0.1819   -1.3942 H       1  WATER21111    0.0614
@<TRIPOS>BOND
     1     1    23    1
     2     1    22    1
     3     1    11    1
     4    11    20    1
     5    20    43    1
     6    20    42    1
     7    20    41    1
     8    10    11    1
     9    10    28    1
    10    10    12    1
    11    12    30    1
    12    12    29    1
    13    12    13    1
    14    13    32    1
    15    13    31    1
    16    13    14    1
    17    14    19    1
    18    19    40    1
    19    19    39    1
    20    19    38    1
    21    14    18    1
    22    18    21    2
    23    17    18    1
    24    17    37    1
    25    17    36    1
    26    16    17    1
    27    16    35    1
    28    16    34    1
    29    15    16    1
    30    15    33    1
    31    14    15    1
    32     9    15    1
    33     9    27    1
    34     9    10    1
    35     8     9    1
    36     7     8    2
    37     7    26    1
    38     6     7    2
    39     6    11    1
    40     5     6    2
    41     5    44    1
    42     3     5    2
    43     3    45    1
    44     2     3    1
    45     2    25    1
    46     2    24    1
    47     1     2    1
    48     8     4    2
