@<TRIPOS>MOLECULE
17
 50 53 0 0 0
SMALL
GASTEIGER

@<TRIPOS>ATOM
      1 ****        2.3387   -1.1642   -1.5460 C.3     1  WATER21111    0.0089
      2 ****        3.8767   -1.1945   -1.5193 C.3     1  WATER21111   -0.0108
      3 ****        4.5189    0.1919   -1.3967 C.3     1  WATER21111   -0.0091
      4 ****       -0.0730    3.0366    0.7326 H       1  WATER21111    0.0093
      5 ****        3.8702    1.0696   -0.3160 C.3     1  WATER21111    0.0384
      6 C5          2.3517    1.0518   -0.3132 C.2     1  WATER21111   -0.1108
      7 C6          1.6823    2.2174   -0.1610 C.2     1  WATER21111   -0.0796
      8 C7          0.1939    2.3896   -0.1356 C.3     1  WATER21111    0.0333
      9 ****       -0.5930    1.0592   -0.0393 C.3     1  WATER21111   -0.0161
     10 ****        0.1158   -0.0638   -0.8801 C.3     1  WATER21111   -0.0114
     11 ****        1.6284   -0.3049   -0.4382 C.3     1  WATER21111   -0.0156
     12 ****       -0.7414   -1.3587   -1.0071 C.3     1  WATER21111    0.0003
     13 ****       -2.2540   -1.1707   -1.2691 C.3     1  WATER21111    0.0136
     14 ****       -2.9168   -0.1157   -0.3426 C.3     1  WATER21111   -0.1122
     15 ****       -2.0698    1.2062   -0.4943 C.3     1  WATER21111   -0.0254
     16 ****       -2.9804    2.3230    0.0732 C.3     1  WATER21111   -0.0041
     17 ****       -4.4243    1.8842   -0.2670 C.3     1  WATER21111   -0.0081
     18 C18        -4.3383    0.4221   -0.8248 C.3     1  WATER21111    0.1354
     19 ****       -3.0154   -0.6769    1.1045 C.3     1  WATER21111    0.0618
     20 C20         1.7301   -1.0269    0.9396 C.3     1  WATER21111    0.0500
     21 ****       -4.3259    0.4817   -1.9503 H       1  WATER21111   -0.0062
     22 ****        2.0313   -0.7946   -2.5518 H       1  WATER21111    0.0044
     23 ****        1.9864   -2.2191   -1.4887 H       1  WATER21111    0.0034
     24 ****        4.2357   -1.8506   -0.6940 H       1  WATER21111    0.0061
     25 ****        4.2346   -1.6787   -2.4575 H       1  WATER21111    0.0052
     26 ****        4.2468    2.1101   -0.4537 H       1  WATER21111    0.0043
     27 ****        4.4679    0.7157   -2.3788 H       1  WATER21111    0.0070
     28 ****        2.2228    3.1642   -0.0570 H       1  WATER21111    0.0511
     29 O29        -5.4468   -0.3199   -0.4202 O.3     1  WATER21111   -0.3122
     30 ****       -0.5852    0.7728    1.0388 H       1  WATER21111    0.0194
     31 ****        0.1779    0.3389   -1.9258 H       1  WATER21111    0.0084
     32 ****       -0.3497   -1.9641   -1.8572 H       1  WATER21111    0.0029
     33 ****       -0.6280   -2.0008   -0.1068 H       1  WATER21111    0.0072
     34 ****       -2.4029   -0.8953   -2.3384 H       1  WATER21111    0.0020
     35 ****       -2.7520   -2.1604   -1.1541 H       1  WATER21111    0.0021
     36 ****       -2.0104    1.4332   -1.5946 H       1  WATER21111    0.0067
     37 ****       -2.7504    3.3060   -0.3895 H       1  WATER21111    0.0092
     38 ****       -2.8536    2.4623    1.1671 H       1  WATER21111    0.0140
     39 ****       -5.0776    1.9619    0.6266 H       1  WATER21111    0.0293
     40 ****       -4.8713    2.5520   -1.0342 H       1  WATER21111    0.0109
     41 ****       -3.5879   -1.6275    1.1268 H       1  WATER21111   -0.0037
     42 ****       -2.0254   -0.9006    1.5488 H       1  WATER21111   -0.0091
     43 ****       -3.5179    0.0224    1.8020 H       1  WATER21111    0.0005
     44 ****       -5.5435   -1.1074   -0.9372 H       1  WATER21111    0.1806
     45 ****        2.7804   -1.1262    1.2815 H       1  WATER21111   -0.0060
     46 ****        1.1922   -0.4791    1.7385 H       1  WATER21111   -0.0036
     47 ****        4.2381    0.7595    0.6909 H       1  WATER21111    0.0079
     48 ****        5.6035    0.0770   -1.1708 H       1  WATER21111    0.0057
     49 ****        1.3189   -2.0557    0.9079 H       1  WATER21111   -0.0060
     50 ****       -0.0951    2.9624   -1.0487 H       1  WATER21111    0.0104
@<TRIPOS>BOND
     1     1    22    1
     2     1     2    1
     3     2    25    1
     4     2     3    1
     5     3    48    1
     6     3    27    1
     7     3     5    1
     8     5    47    1
     9     5     6    1
    10     6     7    2
    11     7     8    1
    12     8    50    1
    13     8     4    1
    14     8     9    1
    15     9    30    1
    16     9    10    1
    17    10    12    1
    18    12    32    1
    19    12    13    1
    20    13    34    1
    21    13    35    1
    22    13    14    1
    23    14    18    1
    24    18    29    1
    25    29    44    1
    26    17    18    1
    27    17    40    1
    28    17    39    1
    29    16    17    1
    30    16    38    1
    31    16    37    1
    32    15    16    1
    33    15    36    1
    34     9    15    1
    35    14    15    1
    36    18    21    1
    37    14    19    1
    38    19    42    1
    39    19    43    1
    40    19    41    1
    41    12    33    1
    42    10    31    1
    43    10    11    1
    44     1    11    1
    45     6    11    1
    46    11    20    1
    47    20    45    1
    48    20    46    1
    49    20    49    1
    50     7    28    1
    51     5    26    1
    52     2    24    1
    53     1    23    1
