@<TRIPOS>MOLECULE
19
 48 51 0 0 0
SMALL
GASTEIGER

@<TRIPOS>ATOM
      1 ****        2.3468   -1.1291   -1.6040 C.3     1  WATER21111    0.0078
      2 ****        3.8867   -1.1937   -1.5435 C.3     1  WATER21111    0.0233
      3 C3          4.5253    0.0718   -1.0548 C.2     1  WATER21111   -0.0941
      4 ****       -0.0505    3.0027    0.8025 H       1  WATER21111    0.0099
      5 C5          3.8210    1.0881   -0.5170 C.1     1  WATER21111   -0.0467
      6 C5          2.3497    1.0807   -0.3847 C.1     1  WATER21111   -0.0753
      7 C6          1.6801    2.2412   -0.1854 C.2     1  WATER21111   -0.0730
      8 C7          0.1919    2.3950   -0.1008 C.3     1  WATER21111    0.0328
      9 ****       -0.5882    1.0576   -0.0348 C.3     1  WATER21111   -0.0158
     10 ****        0.1151   -0.0496   -0.9024 C.3     1  WATER21111   -0.0108
     11 ****        1.6334   -0.2825   -0.4878 C.3     1  WATER21111   -0.0191
     12 ****       -0.7336   -1.3497   -1.0263 C.3     1  WATER21111    0.0004
     13 ****       -2.2488   -1.1672   -1.2765 C.3     1  WATER21111    0.0134
     14 ****       -2.9104   -0.1222   -0.3379 C.3     1  WATER21111   -0.1122
     15 ****       -2.0688    1.2049   -0.4786 C.3     1  WATER21111   -0.0255
     16 ****       -2.9819    2.3102    0.1071 C.3     1  WATER21111   -0.0041
     17 ****       -4.4248    1.8716   -0.2383 C.3     1  WATER21111   -0.0080
     18 C18        -4.3349    0.4156   -0.8112 C.3     1  WATER21111    0.1353
     19 ****       -3.0023   -0.6984    1.1037 C.3     1  WATER21111    0.0617
     20 ****        1.7738   -0.9956    0.8907 C.3     1  WATER21111    0.0507
     21 ****       -4.3245    0.4871   -1.9361 H       1  WATER21111   -0.0063
     22 ****        2.0693   -0.7192   -2.6028 H       1  WATER21111    0.0051
     23 ****        1.9699   -2.1762   -1.5881 H       1  WATER21111    0.0039
     24 ****        4.2115   -2.0379   -0.8908 H       1  WATER21111    0.0097
     25 ****        4.2734   -1.4351   -2.5611 H       1  WATER21111    0.0093
     26 ****        2.2199    3.1894   -0.0966 H       1  WATER21111    0.0522
     27 O27        -5.4400   -0.3346   -0.4126 O.3     1  WATER21111   -0.3120
     28 ****       -0.5737    0.7479    1.0369 H       1  WATER21111    0.0192
     29 ****        0.1571    0.3645   -1.9446 H       1  WATER21111    0.0088
     30 ****       -0.3457   -1.9503   -1.8814 H       1  WATER21111    0.0030
     31 ****       -0.6069   -1.9928   -0.1282 H       1  WATER21111    0.0074
     32 ****       -2.4066   -0.8843   -2.3427 H       1  WATER21111    0.0020
     33 ****       -2.7418   -2.1600   -1.1661 H       1  WATER21111    0.0022
     34 ****       -2.0168    1.4457   -1.5763 H       1  WATER21111    0.0068
     35 ****       -2.7558    3.3011   -0.3404 H       1  WATER21111    0.0092
     36 ****       -2.8541    2.4327    1.2028 H       1  WATER21111    0.0140
     37 ****       -5.0789    1.9390    0.6554 H       1  WATER21111    0.0294
     38 ****       -4.8728    2.5456   -0.9994 H       1  WATER21111    0.0109
     39 ****       -3.5707   -1.6516    1.1177 H       1  WATER21111   -0.0037
     40 ****       -2.0099   -0.9227    1.5422 H       1  WATER21111   -0.0090
     41 ****       -3.5054   -0.0089    1.8106 H       1  WATER21111    0.0005
     42 ****        1.1977   -0.4853    1.6876 H       1  WATER21111   -0.0040
     43 H42         1.4292   -2.0486    0.8549 H       1  WATER21111   -0.0065
     44 ****        2.8270   -1.0219    1.2378 H       1  WATER21111   -0.0039
     45 ****        4.3416    1.9818   -0.1618 H       1  WATER21111    0.0536
     46 ****        5.6121    0.1241   -1.1470 H       1  WATER21111    0.0560
     47 ****       -5.5319   -1.1188   -0.9358 H       1  WATER21111    0.1805
     48 ****       -0.1301    3.0040   -0.9788 H       1  WATER21111    0.0107
@<TRIPOS>BOND
     1     1    11    1
     2    10    11    1
     3    10    29    1
     4    10    12    1
     5    12    13    1
     6    13    14    1
     7    14    19    1
     8    19    40    1
     9    19    39    1
    10    19    41    1
    11    14    18    1
    12    18    21    1
    13    18    27    1
    14    27    47    1
    15    17    18    1
    16    16    17    1
    17    16    36    1
    18    15    16    1
    19    15    34    1
    20    14    15    1
    21     9    15    1
    22     9    28    1
    23     8     9    1
    24     8     4    1
    25     7     8    1
    26     7    26    1
    27     6     7    2
    28     6    11    1
    29     5     6    2
    30     5    45    1
    31     3     5    2
    32     3    46    1
    33     2     3    1
    34     2    25    1
    35     2    24    1
    36     1     2    1
    37     8    48    1
    38     9    10    1
    39    16    35    1
    40    17    37    1
    41    17    38    1
    42    13    33    1
    43    13    32    1
    44    12    30    1
    45    12    31    1
    46    11    20    1
    47    20    42    1
    48    20    43    1
    49    20    44    1
    50     1    23    1
    51     1    22    1
