@<TRIPOS>MOLECULE
21
 48 51 0 0 0
SMALL
GASTEIGER

@<TRIPOS>ATOM
      1 ****        2.3356   -1.2213   -1.4931 C.3     1  WATER21111    0.0058
      2 ****        3.8739   -1.2213   -1.4931 C.3     1  WATER21111   -0.0123
      3 C3          4.4835    0.1869   -1.4931 C.3     1  WATER21111    0.0235
      4 ****        2.2142    3.1455    0.1704 H       1  WATER21111    0.0056
      5 C5          3.6356    1.2133   -0.8028 C.2     1  WATER21111   -0.0757
      6 C5          2.3818    1.0335   -0.3223 C.2     1  WATER21111   -0.1133
      7 C6          1.6872    2.1845    0.3757 C.3     1  WATER21111    0.0375
      8 C7          0.2156    2.3661   -0.0220 C.3     1  WATER21111    0.0004
      9 ****       -0.5881    1.0455    0.0053 C.3     1  WATER21111   -0.0134
     10 ****        0.1344   -0.0711   -0.8350 C.3     1  WATER21111   -0.0096
     11 ****        1.6451   -0.3195   -0.4031 C.3     1  WATER21111   -0.0158
     12 ****       -0.7235   -1.3669   -0.9588 C.3     1  WATER21111   -0.0038
     13 ****       -2.2305   -1.1797   -1.2563 C.3     1  WATER21111    0.0221
     14 ****       -2.8991   -0.1063   -0.3588 C.3     1  WATER21111   -0.1169
     15 ****       -2.0414    1.2074   -0.5157 C.3     1  WATER21111   -0.0270
     16 ****       -2.9681    2.3523   -0.0324 C.3     1  WATER21111   -0.0014
     17 ****       -4.3867    1.9204   -0.4709 C.3     1  WATER21111   -0.0518
     18 ****       -4.2968    0.4189   -0.8006 C.2     1  WATER21111    0.2326
     19 ****       -3.0853   -0.6482    1.0879 C.3     1  WATER21111    0.0548
     20 ****        1.7748   -1.0150    0.9862 C.3     1  WATER21111    0.0498
     21 ****       -5.1850   -0.2387   -1.3160 O.2     1  WATER21111   -0.2739
     22 ****        2.0008   -0.9031   -2.5075 H       1  WATER21111    0.0054
     23 ****        2.0022   -2.2775   -1.3809 H       1  WATER21111    0.0052
     24 ****        4.2583   -1.7963   -0.6205 H       1  WATER21111    0.0072
     25 ****        4.2282   -1.7768   -2.3916 H       1  WATER21111    0.0067
     26 ****        1.7662    2.0401    1.4796 H       1  WATER21111    0.0083
     27 ****       -0.6366    0.7319    1.0752 H       1  WATER21111    0.0174
     28 ****        0.2003    0.3353   -1.8788 H       1  WATER21111    0.0097
     29 ****       -0.3190   -1.9890   -1.7901 H       1  WATER21111    0.0065
     30 ****       -0.6260   -1.9906   -0.0432 H       1  WATER21111    0.0067
     31 ****       -2.3615   -0.9143   -2.3301 H       1  WATER21111    0.0100
     32 ****       -2.7366   -2.1635   -1.1338 H       1  WATER21111    0.0161
     33 ****       -1.9389    1.3990   -1.6195 H       1  WATER21111    0.0113
     34 ****       -2.6918    3.3219   -0.4967 H       1  WATER21111    0.0155
     35 ****       -2.9189    2.5095    1.0651 H       1  WATER21111    0.0157
     36 ****       -5.1353    2.0991    0.3290 H       1  WATER21111    0.0352
     37 ****       -4.7246    2.4960   -1.3584 H       1  WATER21111    0.0356
     38 ****       -3.7651   -1.5256    1.0901 H       1  WATER21111    0.0050
     39 ****       -2.1358   -0.9769    1.5527 H       1  WATER21111    0.0013
     40 ****       -3.5259    0.1069    1.7702 H       1  WATER21111   -0.0058
     41 ****        1.1585   -0.5279    1.7671 H       1  WATER21111   -0.0057
     42 H42         1.4696   -2.0803    0.9522 H       1  WATER21111   -0.0055
     43 ****        2.8215   -0.9947    1.3539 H       1  WATER21111   -0.0040
     44 ****        4.1315    2.1857   -0.7135 H       1  WATER21111    0.0505
     45 ****        5.4873    0.1564   -1.0091 H       1  WATER21111    0.0107
     46 ****       -0.2424    3.0982    0.6818 H       1  WATER21111    0.0043
     47 ****        0.1664    2.8368   -1.0303 H       1  WATER21111    0.0087
     48 ****        4.6613    0.5220   -2.5426 H       1  WATER21111    0.0107
@<TRIPOS>BOND
     1     1    11    1
     2     6    11    1
     3     6     7    1
     4     7     8    1
     5     8    47    1
     6     8    46    1
     7     8     9    1
     8     9    10    1
     9    10    28    1
    10    10    11    1
    11    10    12    1
    12    12    29    1
    13    12    30    1
    14    12    13    1
    15    13    31    1
    16    13    14    1
    17    14    18    1
    18    17    18    1
    19    17    36    1
    20    17    37    1
    21    16    17    1
    22    16    34    1
    23    16    35    1
    24    15    16    1
    25    15    33    1
    26     9    15    1
    27    14    15    1
    28    18    21    2
    29    14    19    1
    30    19    40    1
    31    19    38    1
    32    19    39    1
    33    13    32    1
    34     9    27    1
    35     7    26    1
    36     7     4    1
    37     5     6    2
    38     3     5    1
    39     3    48    1
    40     3    45    1
    41     2     3    1
    42     2    24    1
    43     2    25    1
    44     1     2    1
    45     5    44    1
    46    11    20    1
    47    20    42    1
    48    20    41    1
    49    20    43    1
    50     1    22    1
    51     1    23    1
