@<TRIPOS>MOLECULE
23
 48 51 0 0 0
SMALL
GASTEIGER

@<TRIPOS>ATOM
      1 ****        2.3265   -1.1598   -1.5686 C.3     1  WATER21111    0.0094
      2 ****        3.8627   -1.2182   -1.5735 C.3     1  WATER21111   -0.0460
      3 C3          4.5130    0.1511   -1.3772 C.1     1  WATER21111    0.2505
      4 ****        2.2019    3.1597    0.1058 H       1  WATER21111    0.0146
      5 C5          3.6588    1.2134   -0.7685 C.1     1  WATER21111   -0.1239
      6 C5          2.3865    1.0370   -0.3291 C.2     1  WATER21111   -0.0658
      7 C6          1.6828    2.2011    0.3396 C.3     1  WATER21111    0.0262
      8 C7          0.2078    2.3652   -0.0470 C.3     1  WATER21111   -0.0020
      9 ****       -0.5895    1.0422    0.0104 C.3     1  WATER21111   -0.0152
     10 ****        0.1303   -0.0867   -0.8164 C.3     1  WATER21111   -0.0083
     11 ****        1.6549   -0.3240   -0.4174 C.3     1  WATER21111   -0.0084
     12 ****       -0.7334   -1.3808   -0.9163 C.3     1  WATER21111   -0.0034
     13 ****       -2.2362   -1.1887   -1.2339 C.3     1  WATER21111    0.0204
     14 ****       -2.9069   -0.1073   -0.3477 C.3     1  WATER21111   -0.1169
     15 ****       -2.0439    1.2012   -0.5117 C.3     1  WATER21111   -0.0274
     16 ****       -2.9677    2.3536   -0.0399 C.3     1  WATER21111   -0.0016
     17 ****       -4.3865    1.9234   -0.4792 C.3     1  WATER21111   -0.0517
     18 ****       -4.3006    0.4199   -0.8006 C.2     1  WATER21111    0.2322
     19 ****       -3.1040   -0.6354    1.1025 C.3     1  WATER21111    0.0549
     20 ****        1.8545   -0.9897    1.0056 C.3     1  WATER21111    0.1798
     21 ****       -5.1877   -0.2373   -1.3179 O.2     1  WATER21111   -0.2713
     22 ****        2.0122   -0.7331   -2.5510 H       1  WATER21111    0.0053
     23 ****        1.9558   -2.2077   -1.5695 H       1  WATER21111    0.0300
     24 ****        4.2375   -1.9030   -0.7794 H       1  WATER21111    0.0349
     25 ****        4.1932   -1.6623   -2.5402 H       1  WATER21111    0.0349
     26 ****        1.7730    2.0814    1.4459 H       1  WATER21111    0.0132
     27 ****       -0.6340    0.7460    1.0850 H       1  WATER21111    0.0173
     28 ****        0.1796    0.3085   -1.8661 H       1  WATER21111    0.0100
     29 ****       -0.3254   -2.0265   -1.7268 H       1  WATER21111    0.0114
     30 ****       -0.6592   -1.9793    0.0161 H       1  WATER21111    0.0179
     31 ****       -2.3562   -0.9295   -2.3104 H       1  WATER21111    0.0101
     32 ****       -2.7469   -2.1699   -1.1096 H       1  WATER21111    0.0184
     33 ****       -1.9394    1.3838   -1.6171 H       1  WATER21111    0.0119
     34 ****       -2.6871    3.3181   -0.5122 H       1  WATER21111    0.0156
     35 ****       -2.9205    2.5201    1.0563 H       1  WATER21111    0.0155
     36 ****       -5.1358    2.1092    0.3184 H       1  WATER21111    0.0360
     37 ****       -4.7203    2.4952   -1.3707 H       1  WATER21111    0.0366
     38 ****       -3.7893   -1.5084    1.1091 H       1  WATER21111    0.0067
     39 ****       -2.1589   -0.9652    1.5753 H       1  WATER21111    0.0000
     40 ****       -3.5429    0.1284    1.7760 H       1  WATER21111   -0.0062
     41 ****        1.1346   -0.5414    1.7412 H       1  WATER21111   -0.0170
     42 O42         1.7171   -2.3776    0.9865 O.3     1  WATER21111   -0.3248
     43 ****        2.8739   -0.7191    1.3984 H       1  WATER21111   -0.0197
     44 ****        4.1437    2.1915   -0.6840 H       1  WATER21111    0.0754
     45 ****        5.6805    0.3646   -1.6905 O.2     1  WATER21111   -0.2871
     46 ****       -0.2465    3.1073    0.6485 H       1  WATER21111    0.0088
     47 ****        0.1477    2.8184   -1.0628 H       1  WATER21111    0.0124
     48 ****        1.8586   -2.7417    1.8494 H       1  WATER21111    0.1866
@<TRIPOS>BOND
     1     1    11    1
     2    11    20    1
     3    20    43    1
     4    20    41    1
     5    20    42    1
     6    42    48    1
     7    10    11    1
     8     9    10    1
     9     9    27    1
    10     8     9    1
    11     8    47    1
    12     8    46    1
    13     7     8    1
    14     7    26    1
    15     7     4    1
    16     6     7    1
    17     6    11    1
    18     5     6    2
    19     5    44    1
    20     3     5    2
    21     3    45    2
    22     2     3    1
    23     1     2    1
    24     2    25    1
    25     2    24    1
    26     9    15    1
    27    15    33    1
    28    15    16    1
    29    16    17    1
    30    17    36    1
    31    17    37    1
    32    17    18    1
    33    18    21    2
    34    14    18    1
    35    13    14    1
    36    12    13    1
    37    12    29    1
    38    10    12    1
    39    12    30    1
    40    13    32    1
    41    13    31    1
    42    14    19    1
    43    19    40    1
    44    19    38    1
    45    19    39    1
    46    14    15    1
    47    16    35    1
    48    16    34    1
    49    10    28    1
    50     1    22    1
    51     1    23    1
