@<TRIPOS>MOLECULE
24
 46 49 0 0 0
SMALL
GASTEIGER

@<TRIPOS>ATOM
      1 ****        2.3463   -1.2688   -1.4220 C.3     1  WATER21111    0.0050
      2 ****        3.8816   -1.2016   -1.4872 C.3     1  WATER21111   -0.0467
      3 C3          4.3807    0.2363   -1.6255 C.1     1  WATER21111    0.2462
      4 ****        2.2301    2.7769    1.3175 O.2     1  WATER21111   -0.2706
      5 C5          3.5893    1.2611   -0.8752 C.1     1  WATER21111   -0.0742
      6 C5          2.3842    1.0178   -0.3062 C.1     1  WATER21111   -0.1129
      7 C6          1.6768    2.1217    0.4430 C.1     1  WATER21111    0.2553
      8 C7          0.2224    2.3598    0.0352 C.3     1  WATER21111   -0.0312
      9 ****       -0.5824    1.0380    0.0299 C.3     1  WATER21111   -0.0116
     10 ****        0.1465   -0.0816   -0.8038 C.3     1  WATER21111   -0.0138
     11 ****        1.6535   -0.3374   -0.3596 C.3     1  WATER21111   -0.0221
     12 ****       -0.7146   -1.3747   -0.9305 C.3     1  WATER21111   -0.0033
     13 ****       -2.2141   -1.1789   -1.2578 C.3     1  WATER21111    0.0211
     14 ****       -2.8928   -0.0975   -0.3776 C.3     1  WATER21111   -0.1174
     15 ****       -2.0241    1.2108   -0.5192 C.3     1  WATER21111   -0.0277
     16 ****       -2.9522    2.3624   -0.0542 C.3     1  WATER21111   -0.0023
     17 ****       -4.3656    1.9377   -0.5156 C.3     1  WATER21111   -0.0511
     18 ****       -4.2770    0.4376   -0.8508 C.2     1  WATER21111    0.2321
     19 ****       -3.1147   -0.6347    1.0661 C.3     1  WATER21111    0.0534
     20 ****        1.7769   -0.9970    1.0480 C.3     1  WATER21111    0.0447
     21 ****       -5.1540   -0.2133   -1.3924 O.2     1  WATER21111   -0.2692
     22 ****        1.9633   -1.0276   -2.4407 H       1  WATER21111    0.0112
     23 ****        2.0659   -2.3298   -1.2357 H       1  WATER21111    0.0155
     24 ****        4.3447   -1.6486   -0.5785 H       1  WATER21111    0.0337
     25 ****        4.2270   -1.8246   -2.3429 H       1  WATER21111    0.0372
     26 ****        1.4216   -2.0468    1.0496 H       1  WATER21111    0.0019
     27 ****       -0.6522    0.7169    1.0964 H       1  WATER21111    0.0234
     28 ****        0.2241    0.3232   -1.8474 H       1  WATER21111    0.0119
     29 ****       -0.2984   -2.0070   -1.7480 H       1  WATER21111    0.0088
     30 ****       -0.6359   -1.9888   -0.0068 H       1  WATER21111    0.0094
     31 ****       -2.3222   -0.9176   -2.3351 H       1  WATER21111    0.0121
     32 ****       -2.7272   -2.1596   -1.1402 H       1  WATER21111    0.0198
     33 ****       -1.8980    1.4015   -1.6206 H       1  WATER21111    0.0122
     34 ****       -2.6619    3.3288   -0.5166 H       1  WATER21111    0.0168
     35 ****       -2.9206    2.5223    1.0435 H       1  WATER21111    0.0184
     36 ****       -5.1240    2.1149    0.2754 H       1  WATER21111    0.0379
     37 ****       -4.6889    2.5189   -1.4048 H       1  WATER21111    0.0377
     38 ****       -3.8147   -1.4959    1.0569 H       1  WATER21111    0.0077
     39 ****       -2.1804   -0.9856    1.5451 H       1  WATER21111    0.0002
     40 ****       -3.5477    0.1301    1.7419 H       1  WATER21111   -0.0032
     41 ****        1.1980   -0.4573    1.8228 H       1  WATER21111    0.0004
     42 ****        2.8309   -1.0137    1.3935 H       1  WATER21111    0.0024
     43 ****        4.0580    2.2478   -0.8039 H       1  WATER21111    0.0868
     44 ****        5.3661    0.5341   -2.2907 O.2     1  WATER21111   -0.2720
     45 ****       -0.2533    3.0870    0.7299 H       1  WATER21111    0.0353
     46 ****        0.2247    2.8418   -0.9688 H       1  WATER21111    0.0304
@<TRIPOS>BOND
     1     1    23    1
     2     1    22    1
     3     1     2    1
     4     2    24    1
     5     2     3    1
     6     3    44    2
     7     3     5    2
     8     5    43    1
     9     5     6    2
    10     6     7    2
    11     7     8    1
    12     8    46    1
    13     8    45    1
    14     8     9    1
    15     9    10    1
    16    10    28    1
    17    10    12    1
    18    12    29    1
    19    12    13    1
    20    13    32    1
    21    13    14    1
    22    14    15    1
    23     9    15    1
    24    15    33    1
    25    15    16    1
    26    16    34    1
    27    16    17    1
    28    17    36    1
    29    17    37    1
    30    17    18    1
    31    14    18    1
    32    18    21    2
    33    16    35    1
    34    14    19    1
    35    19    39    1
    36    19    38    1
    37    19    40    1
    38    13    31    1
    39    12    30    1
    40    10    11    1
    41     1    11    1
    42     6    11    1
    43    11    20    1
    44    20    26    1
    45    20    41    1
    46    20    42    1
    47     9    27    1
    48     7     4    2
    49     2    25    1
