@<TRIPOS>MOLECULE
26
 49 53 0 0 0
SMALL
GASTEIGER

@<TRIPOS>ATOM
      1 ****        2.3330   -1.2554   -1.4059 C.3     1  WATER21111    0.0060
      2 ****        3.8722   -1.2618   -1.4213 C.3     1  WATER21111   -0.0124
      3 C3          4.4918    0.1395   -1.5222 C.3     1  WATER21111    0.0238
      4 ****        2.2901    2.8076    0.8790 H       1  WATER21111    0.0499
      5 C5          3.6437    1.2237   -0.9268 C.2     1  WATER21111   -0.0757
      6 C5          2.3907    1.0816   -0.4311 C.2     1  WATER21111   -0.0783
      7 C6          1.6903    2.2844    0.1162 C.3     1  WATER21111   -0.0546
      8 C7          0.1684    2.2778    0.3300 C.3     1  WATER21111   -0.0936
      9 ****       -0.6202    0.9903    0.1128 C.3     1  WATER21111    0.0253
     10 ****        0.1368   -0.0544   -0.7912 C.3     1  WATER21111   -0.0123
     11 ****        1.6569   -0.2757   -0.3788 C.3     1  WATER21111   -0.0148
     12 ****       -0.7059   -1.3540   -0.9673 C.3     1  WATER21111   -0.0033
     13 ****       -2.2011   -1.1554   -1.3201 C.3     1  WATER21111    0.0219
     14 ****       -2.9132   -0.1116   -0.4195 C.3     1  WATER21111   -0.1178
     15 ****       -2.0424    1.2033   -0.4683 C.3     1  WATER21111   -0.0257
     16 ****       -2.9826    2.3301    0.0279 C.3     1  WATER21111    0.0001
     17 ****       -4.3812    1.9301   -0.4980 C.3     1  WATER21111   -0.0519
     18 ****       -4.2787    0.4501   -0.9134 C.2     1  WATER21111    0.2326
     19 ****       -3.1873   -0.7167    0.9882 C.3     1  WATER21111    0.0544
     20 ****        1.8146   -0.8544    1.0590 C.3     1  WATER21111    0.0510
     21 ****       -5.1356   -0.1666   -1.5237 O.2     1  WATER21111   -0.2740
     22 ****        1.9888   -1.0097   -2.4371 H       1  WATER21111    0.0054
     23 ****        2.0003   -2.2999   -1.2117 H       1  WATER21111    0.0051
     24 ****        4.2642   -1.7804   -0.5174 H       1  WATER21111    0.0074
     25 ****        4.2135   -1.8775   -2.2849 H       1  WATER21111    0.0065
     26 ****        1.3939   -1.8765    1.1444 H       1  WATER21111   -0.0062
     27 ****       -0.7270    0.5575    1.1382 H       1  WATER21111    0.0164
     28 ****        0.1889    0.3921   -1.8187 H       1  WATER21111    0.0091
     29 ****       -0.2750   -1.9615   -1.7958 H       1  WATER21111    0.0068
     30 ****       -0.6349   -1.9920   -0.0593 H       1  WATER21111    0.0075
     31 ****       -2.2859   -0.8554   -2.3893 H       1  WATER21111    0.0103
     32 ****       -2.7095   -2.1431   -1.2509 H       1  WATER21111    0.0158
     33 ****       -1.8856    1.4520   -1.5538 H       1  WATER21111    0.0116
     34 ****       -2.6770    3.3183   -0.3744 H       1  WATER21111    0.0163
     35 ****       -2.9848    2.4338    1.1327 H       1  WATER21111    0.0154
     36 ****       -5.1634    2.0613    0.2787 H       1  WATER21111    0.0348
     37 ****       -4.6804    2.5599   -1.3621 H       1  WATER21111    0.0356
     38 ****       -3.8988   -1.5654    0.9145 H       1  WATER21111    0.0047
     39 ****       -2.2736   -1.1066    1.4770 H       1  WATER21111    0.0014
     40 ****       -3.6305    0.0194    1.6888 H       1  WATER21111   -0.0056
     41 ****        1.3171   -0.2313    1.8278 H       1  WATER21111   -0.0038
     42 H42         0.6458    2.9255   -1.8233 H       1  WATER21111    0.0416
     43 ****        2.8812   -0.9188    1.3571 H       1  WATER21111   -0.0047
     44 ****        4.1291    2.2053   -0.9299 H       1  WATER21111    0.0520
     45 ****        5.4897    0.1404   -1.0251 H       1  WATER21111    0.0107
     46 ****       -0.1972    2.8201    1.2182 H       1  WATER21111    0.0448
     47 C47         0.7826    3.1560   -0.7614 C.3     1  WATER21111   -0.0357
     48 H47         0.7925    4.2423   -0.6069 H       1  WATER21111    0.0358
     49 ****        4.6844    0.3900   -2.5924 H       1  WATER21111    0.0105
@<TRIPOS>BOND
     1     1     2    1
     2     2     3    1
     3     3    49    1
     4     3     5    1
     5     5    44    1
     6     5     6    2
     7     6    11    1
     8     1    11    1
     9    11    20    1
    10    20    43    1
    11    20    26    1
    12    20    41    1
    13    10    11    1
    14    10    12    1
    15    12    30    1
    16    12    13    1
    17    13    32    1
    18    13    31    1
    19    13    14    1
    20    14    15    1
    21    15    33    1
    22    15    16    1
    23    16    17    1
    24    17    36    1
    25    17    18    1
    26    18    21    2
    27    14    18    1
    28    17    37    1
    29    16    34    1
    30    16    35    1
    31     9    15    1
    32     8     9    1
    33     8    47    1
    34    47    42    1
    35    47    48    1
    36     7    47    1
    37     6     7    1
    38     7     4    1
    39     7     8    1
    40     8    46    1
    41     9    27    1
    42     9    10    1
    43    14    19    1
    44    19    39    1
    45    19    40    1
    46    19    38    1
    47    12    29    1
    48    10    28    1
    49     3    45    1
    50     2    25    1
    51     2    24    1
    52     1    22    1
    53     1    23    1
