@<TRIPOS>MOLECULE
27
 51 55 0 0 0
SMALL
GASTEIGER

@<TRIPOS>ATOM
      1 ****        2.3379   -1.2640   -1.3890 C.3     1  WATER21111    0.0063
      2 ****        3.8768   -1.2652   -1.4121 C.3     1  WATER21111   -0.0121
      3 C3          4.4920    0.1368   -1.5290 C.3     1  WATER21111    0.0244
      4 ****        2.2931    2.8229    0.8511 H       1  WATER21111    0.0493
      5 C5          3.6418    1.2251   -0.9446 C.2     1  WATER21111   -0.0782
      6 C5          2.3915    1.0845   -0.4419 C.2     1  WATER21111   -0.0758
      7 C6          1.6905    2.2908    0.0966 C.3     1  WATER21111   -0.0575
      8 C7          0.1698    2.2827    0.3185 C.3     1  WATER21111   -0.0907
      9 ****       -0.6183    0.9916    0.1162 C.3     1  WATER21111    0.0236
     10 ****        0.1388   -0.0581   -0.7818 C.3     1  WATER21111   -0.0114
     11 ****        1.6611   -0.2738   -0.3722 C.3     1  WATER21111   -0.0152
     12 ****       -0.7036   -1.3589   -0.9449 C.3     1  WATER21111    0.0001
     13 ****       -2.1940   -1.1574   -1.3133 C.3     1  WATER21111    0.0131
     14 ****       -2.9232   -0.1080   -0.4297 C.3     1  WATER21111   -0.1134
     15 ****       -2.0445    1.2037   -0.4582 C.3     1  WATER21111   -0.0245
     16 ****       -2.9830    2.3168    0.0661 C.3     1  WATER21111   -0.0023
     17 ****       -4.3948    1.9198   -0.4285 C.3     1  WATER21111   -0.0082
     18 C18        -4.2802    0.4761   -1.0293 C.3     1  WATER21111    0.1353
     19 ****       -3.1743   -0.7084    0.9833 C.3     1  WATER21111    0.0614
     20 ****        1.8233   -0.8364    1.0714 C.3     1  WATER21111    0.0511
     21 ****       -4.1546    0.5749   -2.1451 H       1  WATER21111   -0.0064
     22 ****        1.9876   -1.0334   -2.4217 H       1  WATER21111    0.0045
     23 ****        2.0094   -2.3071   -1.1797 H       1  WATER21111    0.0043
     24 ****        4.2752   -1.7740   -0.5054 H       1  WATER21111    0.0072
     25 ****        4.2162   -1.8878   -2.2717 H       1  WATER21111    0.0056
     26 ****        1.3846   -1.8492    1.1750 H       1  WATER21111   -0.0066
     27 ****       -0.7169    0.5675    1.1458 H       1  WATER21111    0.0172
     28 ****        0.1877    0.3798   -1.8133 H       1  WATER21111    0.0080
     29 ****       -0.2673   -1.9804   -1.7601 H       1  WATER21111    0.0032
     30 ****       -0.6432   -1.9835   -0.0269 H       1  WATER21111    0.0080
     31 ****       -2.2609   -0.8697   -2.3878 H       1  WATER21111    0.0017
     32 ****       -2.7039   -2.1454   -1.2467 H       1  WATER21111    0.0023
     33 ****       -1.8844    1.4735   -1.5381 H       1  WATER21111    0.0072
     34 ****       -2.6903    3.3108   -0.3326 H       1  WATER21111    0.0103
     35 ****       -2.9604    2.4111    1.1718 H       1  WATER21111    0.0135
     36 ****       -5.1306    1.9789    0.4000 H       1  WATER21111    0.0290
     37 ****       -4.7538    2.6227   -1.2101 H       1  WATER21111    0.0108
     38 ****       -3.7861   -1.6326    0.9217 H       1  WATER21111   -0.0035
     39 ****       -2.2384   -0.9925    1.5042 H       1  WATER21111   -0.0091
     40 ****       -3.7072   -0.0096    1.6583 H       1  WATER21111    0.0003
     41 ****        1.3459   -0.1936    1.8366 H       1  WATER21111   -0.0028
     42 H42         0.6350    2.9124   -1.8430 H       1  WATER21111    0.0409
     43 ****        2.8916   -0.9171    1.3594 H       1  WATER21111   -0.0056
     44 ****        4.1233    2.2085   -0.9622 H       1  WATER21111    0.0517
     45 ****        5.4903    0.1459   -1.0325 H       1  WATER21111    0.0101
     46 ****       -0.1915    2.8319    1.2042 H       1  WATER21111    0.0453
     47 C47         0.7762    3.1524   -0.7838 C.3     1  WATER21111   -0.0358
     48 H47         0.7852    4.2402   -0.6393 H       1  WATER21111    0.0353
     49 ****        4.6837    0.3761   -2.6020 H       1  WATER21111    0.0098
     50 O50        -5.4366   -0.2555   -0.7644 O.3     1  WATER21111   -0.3121
     51 ****       -5.4927   -1.0240   -1.3149 H       1  WATER21111    0.1804
@<TRIPOS>BOND
     1     1    23    1
     2     1     2    1
     3     2    25    1
     4     2     3    1
     5     3     5    1
     6     5     6    2
     7     6     7    1
     8     7    47    1
     9    47    42    1
    10     8    47    1
    11     8    46    1
    12     8     9    1
    13     9    15    1
    14    15    33    1
    15    15    16    1
    16    16    34    1
    17    16    35    1
    18    16    17    1
    19    17    37    1
    20    17    36    1
    21    17    18    1
    22    18    50    1
    23    50    51    1
    24    18    21    1
    25    14    18    1
    26    13    14    1
    27    12    13    1
    28    12    30    1
    29    10    12    1
    30     9    10    1
    31    10    28    1
    32    10    11    1
    33     6    11    1
    34     1    11    1
    35    11    20    1
    36    20    43    1
    37    20    26    1
    38    20    41    1
    39    12    29    1
    40    13    32    1
    41    13    31    1
    42    14    15    1
    43    14    19    1
    44    19    38    1
    45    19    39    1
    46    19    40    1
    47     9    27    1
    48     7     8    1
    49    47    48    1
    50     7     4    1
    51     5    44    1
    52     3    49    1
    53     3    45    1
    54     2    24    1
    55     1    22    1
