@<TRIPOS>MOLECULE
31
 48 51 0 0 0
SMALL
GASTEIGER

@<TRIPOS>ATOM
      1 ****        2.3337   -1.2171   -1.5021 C.3     1  WATER21111    0.0058
      2 ****        3.8723   -1.2190   -1.4973 C.3     1  WATER21111   -0.0124
      3 C3          4.4876    0.1866   -1.4821 C.3     1  WATER21111    0.0230
      4 ****        2.2147    3.1439    0.1751 H       1  WATER21111    0.0067
      5 C5          3.6383    1.2117   -0.7923 C.2     1  WATER21111   -0.0737
      6 C5          2.3816    1.0322   -0.3195 C.2     1  WATER21111   -0.1150
      7 C6          1.6857    2.1833    0.3768 C.3     1  WATER21111    0.0377
      8 C7          0.2167    2.3670   -0.0285 C.3     1  WATER21111   -0.0004
      9 ****       -0.5868    1.0466    0.0006 C.3     1  WATER21111   -0.0129
     10 ****        0.1337   -0.0704   -0.8404 C.3     1  WATER21111   -0.0100
     11 ****        1.6437   -0.3201   -0.4077 C.3     1  WATER21111   -0.0154
     12 ****       -0.7251   -1.3660   -0.9636 C.3     1  WATER21111   -0.0042
     13 ****       -2.2348   -1.1815   -1.2498 C.3     1  WATER21111    0.0215
     14 ****       -2.8976   -0.1040   -0.3517 C.3     1  WATER21111   -0.1122
     15 ****       -2.0405    1.2069   -0.5195 C.3     1  WATER21111   -0.0298
     16 ****       -2.9645    2.3534   -0.0371 C.3     1  WATER21111    0.0046
     17 ****       -4.3858    1.9220   -0.4748 C.3     1  WATER21111   -0.0475
     18 ****       -4.2998    0.4110   -0.7879 C.2     1  WATER21111    0.2369
     19 ****       -3.0750   -0.6412    1.0988 C.3     1  WATER21111    0.0521
     20 ****        1.7722   -1.0215    0.9788 C.3     1  WATER21111    0.0495
     21 ****       -5.2011   -0.2587   -1.2581 O.2     1  WATER21111   -0.2454
     22 ****        2.0019   -0.8916   -2.5150 H       1  WATER21111    0.0059
     23 ****        1.9980   -2.2732   -1.3973 H       1  WATER21111    0.0053
     24 ****        4.2526   -1.8033   -0.6290 H       1  WATER21111    0.0072
     25 ****        4.2280   -1.7669   -2.3999 H       1  WATER21111    0.0072
     26 ****        1.7587    2.0374    1.4809 H       1  WATER21111    0.0083
     27 ****       -0.6341    0.7341    1.0706 H       1  WATER21111    0.0172
     28 ****        0.1990    0.3361   -1.8841 H       1  WATER21111    0.0115
     29 ****       -0.3267   -1.9836   -1.8011 H       1  WATER21111    0.0085
     30 ****       -0.6205   -1.9937   -0.0516 H       1  WATER21111    0.0071
     31 ****       -2.3759   -0.9212   -2.3233 H       1  WATER21111    0.0134
     32 ****       -2.7378   -2.1656   -1.1169 H       1  WATER21111    0.0174
     33 ****       -1.9394    1.3939   -1.6239 H       1  WATER21111    0.0201
     34 ****       -2.6715    3.3267   -0.4806 H       1  WATER21111    0.0345
     35 ****       -2.9315    2.4971    1.0638 H       1  WATER21111    0.0224
     36 ****       -5.1306    2.1100    0.3248 H       1  WATER21111    0.0649
     37 BR37       -5.0104    2.9111   -1.9550 Br      1  WATER21111   -0.0900
     38 ****       -3.7683   -1.5077    1.1115 H       1  WATER21111    0.0076
     39 ****       -2.1249   -0.9837    1.5514 H       1  WATER21111    0.0048
     40 ****       -3.4950    0.1218    1.7849 H       1  WATER21111   -0.0065
     41 ****        1.1461   -0.5447    1.7584 H       1  WATER21111   -0.0063
     42 H42         1.4788   -2.0899    0.9379 H       1  WATER21111   -0.0054
     43 ****        2.8163   -0.9920    1.3528 H       1  WATER21111   -0.0032
     44 ****        4.1356    2.1830   -0.6969 H       1  WATER21111    0.0511
     45 ****        5.4875    0.1486   -0.9903 H       1  WATER21111    0.0113
     46 ****       -0.2435    3.1019    0.6707 H       1  WATER21111    0.0041
     47 ****        0.1722    2.8340   -1.0386 H       1  WATER21111    0.0111
     48 ****        4.6756    0.5279   -2.5278 H       1  WATER21111    0.0114
@<TRIPOS>BOND
     1     1    22    1
     2     1     2    1
     3     2    25    1
     4     2     3    1
     5     3    45    1
     6     3     5    1
     7     5     6    2
     8     6     7    1
     9     7     4    1
    10     7    26    1
    11     7     8    1
    12     8    46    1
    13     8    47    1
    14     8     9    1
    15     9    15    1
    16    15    33    1
    17    15    16    1
    18    16    34    1
    19    16    35    1
    20    16    17    1
    21    17    37    1
    22    17    18    1
    23    18    21    2
    24    14    18    1
    25    14    15    1
    26    14    19    1
    27    19    39    1
    28    19    40    1
    29    19    38    1
    30    13    14    1
    31    13    32    1
    32    12    13    1
    33    12    29    1
    34    10    12    1
    35    10    28    1
    36     9    10    1
    37    10    11    1
    38     6    11    1
    39     1    11    1
    40    11    20    1
    41    20    41    1
    42    20    43    1
    43    20    42    1
    44    12    30    1
    45    13    31    1
    46    17    36    1
    47     9    27    1
    48     5    44    1
    49     3    48    1
    50     2    24    1
    51     1    23    1
