@<TRIPOS>MOLECULE
32
 48 51 0 0 0
SMALL
GASTEIGER

@<TRIPOS>ATOM
      1 ****        2.3341   -1.2194   -1.4993 C.3     1  WATER21111    0.0059
      2 ****        3.8728   -1.2178   -1.4969 C.3     1  WATER21111   -0.0125
      3 C3          4.4852    0.1891   -1.4862 C.3     1  WATER21111    0.0230
      4 ****        2.2125    3.1438    0.1766 H       1  WATER21111    0.0066
      5 C5          3.6356    1.2137   -0.7962 C.2     1  WATER21111   -0.0738
      6 C5          2.3802    1.0325   -0.3207 C.2     1  WATER21111   -0.1151
      7 C6          1.6851    2.1824    0.3783 C.3     1  WATER21111    0.0377
      8 C7          0.2154    2.3657   -0.0244 C.3     1  WATER21111   -0.0003
      9 ****       -0.5875    1.0448    0.0030 C.3     1  WATER21111   -0.0131
     10 ****        0.1332   -0.0707   -0.8400 C.3     1  WATER21111   -0.0096
     11 ****        1.6433   -0.3204   -0.4072 C.3     1  WATER21111   -0.0153
     12 ****       -0.7249   -1.3664   -0.9665 C.3     1  WATER21111   -0.0042
     13 ****       -2.2352   -1.1821   -1.2487 C.3     1  WATER21111    0.0209
     14 ****       -2.8980   -0.1066   -0.3473 C.3     1  WATER21111   -0.1107
     15 ****       -2.0415    1.2054   -0.5159 C.3     1  WATER21111   -0.0287
     16 ****       -2.9637    2.3546   -0.0325 C.3     1  WATER21111    0.0044
     17 ****       -4.3793    1.9257   -0.4882 C.3     1  WATER21111   -0.0488
     18 ****       -4.2964    0.4123   -0.7882 C.2     1  WATER21111    0.2381
     19 ****       -3.0714   -0.6476    1.1017 C.3     1  WATER21111    0.0521
     20 ****        1.7717   -1.0206    0.9799 C.3     1  WATER21111    0.0493
     21 ****       -5.1819   -0.2405   -1.3100 O.2     1  WATER21111   -0.2478
     22 ****        2.0009   -0.8978   -2.5132 H       1  WATER21111    0.0052
     23 ****        2.0010   -2.2760   -1.3912 H       1  WATER21111    0.0056
     24 ****        4.2561   -1.7990   -0.6279 H       1  WATER21111    0.0075
     25 ****        4.2288   -1.7670   -2.3987 H       1  WATER21111    0.0071
     26 ****        1.7607    2.0351    1.4820 H       1  WATER21111    0.0093
     27 ****       -0.6350    0.7303    1.0724 H       1  WATER21111    0.0197
     28 ****        0.1985    0.3376   -1.8831 H       1  WATER21111    0.0099
     29 ****       -0.3273   -1.9801   -1.8074 H       1  WATER21111    0.0081
     30 ****       -0.6175   -1.9978   -0.0575 H       1  WATER21111    0.0083
     31 ****       -2.3778   -0.9203   -2.3220 H       1  WATER21111    0.0102
     32 ****       -2.7379   -2.1664   -1.1171 H       1  WATER21111    0.0183
     33 ****       -1.9412    1.3924   -1.6207 H       1  WATER21111    0.0121
     34 ****       -2.6890    3.3227   -0.5016 H       1  WATER21111    0.0243
     35 ****       -2.9045    2.5128    1.0635 H       1  WATER21111    0.0343
     36 BR36       -5.7115    2.3194    0.7856 Br      1  WATER21111   -0.0896
     37 H37        -4.6877    2.4827   -1.3971 H       1  WATER21111    0.0656
     38 ****       -3.7978   -1.4865    1.1189 H       1  WATER21111    0.0081
     39 ****       -2.1271   -1.0329    1.5323 H       1  WATER21111    0.0026
     40 ****       -3.4459    0.1248    1.8023 H       1  WATER21111    0.0019
     41 ****        1.1439   -0.5448    1.7585 H       1  WATER21111   -0.0056
     42 H42         1.4805   -2.0897    0.9391 H       1  WATER21111   -0.0051
     43 ****        2.8155   -0.9889    1.3546 H       1  WATER21111   -0.0031
     44 ****        4.1318    2.1855   -0.7017 H       1  WATER21111    0.0511
     45 ****        5.4861    0.1541   -0.9965 H       1  WATER21111    0.0114
     46 ****       -0.2446    3.0994    0.6759 H       1  WATER21111    0.0052
     47 ****        0.1697    2.8340   -1.0340 H       1  WATER21111    0.0088
     48 ****        4.6704    0.5287   -2.5330 H       1  WATER21111    0.0111
@<TRIPOS>BOND
     1     1    22    1
     2     1     2    1
     3     2     3    1
     4     3     5    1
     5     5     6    2
     6     6     7    1
     7     7     4    1
     8     7    26    1
     9     7     8    1
    10     8    47    1
    11     8    46    1
    12     8     9    1
    13     9    15    1
    14    15    16    1
    15    16    34    1
    16    16    35    1
    17    16    17    1
    18    17    36    1
    19    17    37    1
    20    17    18    1
    21    18    21    2
    22    14    18    1
    23    14    15    1
    24    13    14    1
    25    13    31    1
    26    13    32    1
    27    12    13    1
    28    12    30    1
    29    12    29    1
    30    10    12    1
    31     9    10    1
    32    10    11    1
    33     1    11    1
    34     6    11    1
    35    11    20    1
    36    20    42    1
    37    20    41    1
    38    20    43    1
    39    10    28    1
    40    14    19    1
    41    19    40    1
    42    19    38    1
    43    19    39    1
    44    15    33    1
    45     9    27    1
    46     5    44    1
    47     3    45    1
    48     3    48    1
    49     2    24    1
    50     2    25    1
    51     1    23    1
