@<TRIPOS>MOLECULE
36
 53 56 0 0 0
SMALL
GASTEIGER

@<TRIPOS>ATOM
      1 ****        2.3270   -1.1951   -1.5188 C.3     1  WATER21111    0.0032
      2 ****        3.8625   -1.2468   -1.5093 C.3     1  WATER21111   -0.0467
      3 C3          4.4895    0.1432   -1.4124 C.1     1  WATER21111    0.2542
      4 C4          1.9989    2.3748    1.8458 C.3     1  WATER21111   -0.0079
      5 C5          3.6548    1.1997   -0.7700 C.1     1  WATER21111   -0.1358
      6 C5          2.3843    1.0398   -0.3130 C.2     1  WATER21111   -0.0389
      7 C6          1.7059    2.2589    0.3198 C.3     1  WATER21111   -0.0033
      8 C7          0.2083    2.3702   -0.0547 C.3     1  WATER21111    0.0105
      9 ****       -0.5858    1.0454   -0.0025 C.3     1  WATER21111   -0.0140
     10 ****        0.1329   -0.0652   -0.8482 C.3     1  WATER21111   -0.0102
     11 ****        1.6411   -0.3109   -0.4115 C.3     1  WATER21111   -0.0259
     12 ****       -0.7222   -1.3623   -0.9842 C.3     1  WATER21111   -0.0036
     13 ****       -2.2305   -1.1759   -1.2733 C.3     1  WATER21111    0.0219
     14 ****       -2.8965   -0.1151   -0.3595 C.3     1  WATER21111   -0.1173
     15 ****       -2.0455    1.2032   -0.5106 C.3     1  WATER21111   -0.0275
     16 ****       -2.9729    2.3401   -0.0093 C.3     1  WATER21111   -0.0016
     17 ****       -4.3947    1.9046   -0.4336 C.3     1  WATER21111   -0.0515
     18 ****       -4.2997    0.4089   -0.7859 C.2     1  WATER21111    0.2324
     19 ****       -3.0703   -0.6721    1.0830 C.3     1  WATER21111    0.0545
     20 ****        1.7665   -1.0445    0.9585 C.3     1  WATER21111    0.0479
     21 ****       -5.1864   -0.2462   -1.3065 O.2     1  WATER21111   -0.2714
     22 ****        2.0150   -0.8340   -2.5266 H       1  WATER21111    0.0100
     23 ****        1.9643   -2.2452   -1.4469 H       1  WATER21111    0.0121
     24 ****        4.2367   -1.8619   -0.6595 H       1  WATER21111    0.0309
     25 ****        4.2041   -1.7643   -2.4343 H       1  WATER21111    0.0350
     26 ****        1.5097   -2.1204    0.8801 H       1  WATER21111   -0.0010
     27 ****       -0.6256    0.7336    1.0673 H       1  WATER21111    0.0197
     28 ****        0.1996    0.3465   -1.8901 H       1  WATER21111    0.0111
     29 ****       -0.3204   -1.9720   -1.8260 H       1  WATER21111    0.0073
     30 ****       -0.6194   -1.9974   -0.0774 H       1  WATER21111    0.0075
     31 ****       -2.3665   -0.8982   -2.3434 H       1  WATER21111    0.0113
     32 ****       -2.7326   -2.1628   -1.1606 H       1  WATER21111    0.0180
     33 ****       -1.9527    1.4044   -1.6136 H       1  WATER21111    0.0119
     34 ****       -2.7073    3.3138   -0.4713 H       1  WATER21111    0.0161
     35 ****       -2.9111    2.4909    1.0884 H       1  WATER21111    0.0161
     36 ****       -5.1319    2.0661    0.3804 H       1  WATER21111    0.0362
     37 ****       -4.7502    2.4908   -1.3072 H       1  WATER21111    0.0368
     38 ****       -3.7461   -1.5524    1.0811 H       1  WATER21111    0.0063
     39 ****       -2.1158   -1.0006    1.5376 H       1  WATER21111    0.0003
     40 ****       -3.5094    0.0741    1.7758 H       1  WATER21111   -0.0048
     41 ****        1.1058   -0.6156    1.7361 H       1  WATER21111   -0.0013
     42 ****        2.1723    3.1624   -0.1566 H       1  WATER21111    0.0172
     43 ****        2.8017   -0.9936    1.3541 H       1  WATER21111   -0.0026
     44 ****        4.1561    2.1697   -0.6828 H       1  WATER21111    0.0746
     45 ****        5.6207    0.3752   -1.8282 O.2     1  WATER21111   -0.2870
     46 ****       -0.2779    3.1155    0.6135 H       1  WATER21111    0.0084
     47 ****        0.1485    2.8064   -1.0795 H       1  WATER21111    0.0079
     48 ****        2.9574    1.8563    2.0787 H       1  WATER21111    0.0079
     49 C49         2.1106    3.8035    2.3906 C.3     1  WATER21111    0.0274
     50 ****        1.2183    1.8395    2.4313 H       1  WATER21111    0.0062
     51 ****        2.3144    3.7749    3.4811 H       1  WATER21111   -0.0028
     52 ****        2.9398    4.3633    1.9126 H       1  WATER21111   -0.0016
     53 ****        1.1793    4.3859    2.2440 H       1  WATER21111   -0.0042
@<TRIPOS>BOND
     1     1    23    1
     2     1    11    1
     3    10    11    1
     4    10    28    1
     5    10    12    1
     6    12    30    1
     7    12    29    1
     8    12    13    1
     9    13    14    1
    10    14    18    1
    11    18    21    2
    12    17    18    1
    13    17    37    1
    14    16    17    1
    15    16    35    1
    16    16    34    1
    17    15    16    1
    18    14    15    1
    19     9    15    1
    20     9    10    1
    21     8     9    1
    22     8    47    1
    23     7     8    1
    24     7     4    1
    25     4    50    1
    26     4    49    1
    27    49    52    1
    28    49    53    1
    29    49    51    1
    30     4    48    1
    31     6     7    1
    32     5     6    2
    33     5    44    1
    34     3     5    2
    35     3    45    2
    36     2     3    1
    37     2    25    1
    38     2    24    1
    39     1     2    1
    40     6    11    1
    41     7    42    1
    42     8    46    1
    43     9    27    1
    44    15    33    1
    45    17    36    1
    46    14    19    1
    47    19    38    1
    48    19    40    1
    49    19    39    1
    50    13    32    1
    51    13    31    1
    52    11    20    1
    53    20    43    1
    54    20    41    1
    55    20    26    1
    56     1    22    1
