@<TRIPOS>MOLECULE
38
 56 59 0 0 0
SMALL
GASTEIGER

@<TRIPOS>ATOM
      1 ****        2.3267   -1.1938   -1.5222 C.3     1  WATER21111    0.0032
      2 ****        3.8621   -1.2442   -1.5131 C.3     1  WATER21111   -0.0467
      3 C3          4.4861    0.1472   -1.4201 C.1     1  WATER21111    0.2541
      4 C4          1.9967    2.3583    1.8576 C.3     1  WATER21111    0.0065
      5 C5          3.6539    1.2004   -0.7688 C.1     1  WATER21111   -0.1357
      6 C5          2.3844    1.0383   -0.3098 C.2     1  WATER21111   -0.0391
      7 C6          1.7065    2.2550    0.3287 C.3     1  WATER21111   -0.0047
      8 C7          0.2103    2.3686   -0.0514 C.3     1  WATER21111    0.0106
      9 ****       -0.5858    1.0450   -0.0018 C.3     1  WATER21111   -0.0140
     10 ****        0.1327   -0.0665   -0.8466 C.3     1  WATER21111   -0.0102
     11 ****        1.6414   -0.3123   -0.4120 C.3     1  WATER21111   -0.0260
     12 ****       -0.7222   -1.3640   -0.9789 C.3     1  WATER21111   -0.0036
     13 ****       -2.2308   -1.1784   -1.2673 C.3     1  WATER21111    0.0219
     14 ****       -2.8964   -0.1140   -0.3573 C.3     1  WATER21111   -0.1174
     15 ****       -2.0448    1.2036   -0.5122 C.3     1  WATER21111   -0.0274
     16 ****       -2.9725    2.3429   -0.0168 C.3     1  WATER21111   -0.0016
     17 ****       -4.3940    1.9061   -0.4409 C.3     1  WATER21111   -0.0515
     18 ****       -4.2991    0.4089   -0.7866 C.2     1  WATER21111    0.2324
     19 ****       -3.0712   -0.6661    1.0869 C.3     1  WATER21111    0.0545
     20 ****        1.7678   -1.0499    0.9559 C.3     1  WATER21111    0.0478
     21 ****       -5.1856   -0.2483   -1.3051 O.2     1  WATER21111   -0.2714
     22 ****        2.0133   -0.8312   -2.5290 H       1  WATER21111    0.0102
     23 ****        1.9649   -2.2443   -1.4520 H       1  WATER21111    0.0120
     24 ****        4.2374   -1.8566   -0.6618 H       1  WATER21111    0.0309
     25 ****        4.2040   -1.7641   -2.4367 H       1  WATER21111    0.0350
     26 ****        1.5230   -2.1282    0.8719 H       1  WATER21111   -0.0010
     27 ****       -0.6278    0.7328    1.0678 H       1  WATER21111    0.0196
     28 ****        0.1976    0.3441   -1.8891 H       1  WATER21111    0.0112
     29 ****       -0.3207   -1.9758   -1.8193 H       1  WATER21111    0.0073
     30 ****       -0.6186   -1.9967   -0.0703 H       1  WATER21111    0.0075
     31 ****       -2.3682   -0.9046   -2.3382 H       1  WATER21111    0.0113
     32 ****       -2.7324   -2.1651   -1.1499 H       1  WATER21111    0.0180
     33 ****       -1.9509    1.4013   -1.6157 H       1  WATER21111    0.0118
     34 ****       -2.7063    3.3144   -0.4832 H       1  WATER21111    0.0160
     35 ****       -2.9123    2.4987    1.0802 H       1  WATER21111    0.0162
     36 ****       -5.1321    2.0715    0.3715 H       1  WATER21111    0.0362
     37 ****       -4.7483    2.4887   -1.3174 H       1  WATER21111    0.0368
     38 ****       -3.7533   -1.5417    1.0884 H       1  WATER21111    0.0063
     39 ****       -2.1183   -1.0008    1.5403 H       1  WATER21111    0.0003
     40 ****       -3.5033    0.0849    1.7788 H       1  WATER21111   -0.0048
     41 ****        1.0991   -0.6313    1.7323 H       1  WATER21111   -0.0012
     42 ****        2.1751    3.1601   -0.1419 H       1  WATER21111    0.0177
     43 ****        2.8005   -0.9902    1.3566 H       1  WATER21111   -0.0026
     44 ****        4.1564    2.1694   -0.6773 H       1  WATER21111    0.0747
     45 ****        5.6128    0.3831   -1.8459 O.2     1  WATER21111   -0.2870
     46 ****       -0.2775    3.1146    0.6148 H       1  WATER21111    0.0084
     47 ****        0.1549    2.8049   -1.0764 H       1  WATER21111    0.0079
     48 ****        2.9522    1.8313    2.0817 H       1  WATER21111    0.0073
     49 C49         2.1109    3.7963    2.4056 C.3     1  WATER21111   -0.0230
     50 ****        1.2105    1.8179    2.4300 H       1  WATER21111    0.0058
     51 C51         2.3912    3.8803    3.9094 C.3     1  WATER21111    0.0288
     52 ****        2.9242    4.3357    1.8672 H       1  WATER21111    0.0078
     53 ****        1.1736    4.3599    2.1943 H       1  WATER21111    0.0051
     54 ****        2.4666    4.9415    4.2246 H       1  WATER21111   -0.0038
     55 ****        1.5821    3.4127    4.5062 H       1  WATER21111   -0.0052
     56 ****        3.3446    3.3837    4.1808 H       1  WATER21111   -0.0030
@<TRIPOS>BOND
     1     1     2    1
     2     2    24    1
     3     2     3    1
     4     3    45    2
     5     3     5    2
     6     5    44    1
     7     5     6    2
     8     6     7    1
     9     7     8    1
    10     8    46    1
    11     8     9    1
    12     9    27    1
    13     9    15    1
    14    15    33    1
    15    14    15    1
    16    13    14    1
    17    12    13    1
    18    12    30    1
    19    12    29    1
    20    10    12    1
    21    10    28    1
    22    10    11    1
    23     6    11    1
    24    11    20    1
    25    20    41    1
    26    20    43    1
    27    20    26    1
    28     1    11    1
    29     9    10    1
    30    13    31    1
    31    13    32    1
    32    14    18    1
    33    18    21    2
    34    17    18    1
    35    17    37    1
    36    17    36    1
    37    16    17    1
    38    15    16    1
    39    16    35    1
    40    16    34    1
    41    14    19    1
    42    19    39    1
    43    19    40    1
    44    19    38    1
    45     8    47    1
    46     7     4    1
    47     4    50    1
    48     4    48    1
    49     4    49    1
    50    49    53    1
    51    49    51    1
    52    51    56    1
    53    51    54    1
    54    51    55    1
    55    49    52    1
    56     7    42    1
    57     2    25    1
    58     1    23    1
    59     1    22    1
