@<TRIPOS>MOLECULE
41
 59 62 0 0 0
SMALL
GASTEIGER

@<TRIPOS>ATOM
      1 ****        2.3157   -1.1787   -1.5396 C.3     1  WATER21111    0.0038
      2 ****        3.8491   -1.2486   -1.5422 C.3     1  WATER21111   -0.0471
      3 C3          4.4970    0.1263   -1.4079 C.1     1  WATER21111    0.2544
      4 ****        1.6447    1.8770    1.4759 H       1  WATER21111    0.0161
      5 C5          3.6727    1.1978   -0.7750 C.1     1  WATER21111   -0.1367
      6 C5          2.3968    1.0708   -0.3282 C.2     1  WATER21111   -0.0321
      7 C6          1.6812    2.2121    0.4023 C.3     1  WATER21111   -0.0023
      8 C7          0.2143    2.3690   -0.0693 C.3     1  WATER21111    0.0093
      9 ****       -0.5891    1.0504   -0.0071 C.3     1  WATER21111   -0.0169
     10 ****        0.1326   -0.0626   -0.8450 C.3     1  WATER21111   -0.0106
     11 ****        1.6496   -0.2875   -0.4260 C.3     1  WATER21111   -0.0307
     12 ****       -0.7176   -1.3659   -0.9502 C.3     1  WATER21111   -0.0035
     13 ****       -2.2273   -1.1888   -1.2408 C.3     1  WATER21111    0.0219
     14 ****       -2.8976   -0.1127   -0.3480 C.3     1  WATER21111   -0.1174
     15 ****       -2.0475    1.2040   -0.5177 C.3     1  WATER21111   -0.0270
     16 ****       -2.9764    2.3472   -0.0340 C.3     1  WATER21111   -0.0015
     17 ****       -4.3961    1.9053   -0.4593 C.3     1  WATER21111   -0.0515
     18 ****       -4.2988    0.4044   -0.7890 C.2     1  WATER21111    0.2323
     19 ****       -3.0776   -0.6454    1.1029 C.3     1  WATER21111    0.0544
     20 ****        1.7997   -1.0048    0.9514 C.3     1  WATER21111    0.0465
     21 ****       -5.1823   -0.2586   -1.3051 O.2     1  WATER21111   -0.2714
     22 ****        1.9991   -0.8123   -2.5441 H       1  WATER21111    0.0102
     23 ****        1.9419   -2.2245   -1.4642 H       1  WATER21111    0.0121
     24 ****        4.2190   -1.8953   -0.7139 H       1  WATER21111    0.0311
     25 ****        4.1787   -1.7424   -2.4846 H       1  WATER21111    0.0351
     26 ****        1.5350   -2.0798    0.8936 H       1  WATER21111   -0.0005
     27 ****       -0.6287    0.7483    1.0661 H       1  WATER21111    0.0194
     28 ****        0.1827    0.3354   -1.8931 H       1  WATER21111    0.0113
     29 ****       -0.3176   -1.9940   -1.7790 H       1  WATER21111    0.0073
     30 ****       -0.6103   -1.9797   -0.0293 H       1  WATER21111    0.0076
     31 ****       -2.3648   -0.9318   -2.3159 H       1  WATER21111    0.0113
     32 ****       -2.7265   -2.1748   -1.1084 H       1  WATER21111    0.0179
     33 ****       -1.9542    1.3904   -1.6233 H       1  WATER21111    0.0118
     34 ****       -2.7088    3.3150   -0.5070 H       1  WATER21111    0.0161
     35 ****       -2.9197    2.5120    1.0619 H       1  WATER21111    0.0162
     36 ****       -5.1378    2.0787    0.3482 H       1  WATER21111    0.0363
     37 ****       -4.7465    2.4785   -1.3434 H       1  WATER21111    0.0368
     38 ****       -3.7666   -1.5155    1.1149 H       1  WATER21111    0.0063
     39 ****       -2.1274   -0.9816    1.5610 H       1  WATER21111    0.0003
     40 ****       -3.5044    0.1171    1.7854 H       1  WATER21111   -0.0048
     41 ****        1.1610   -0.5582    1.7381 H       1  WATER21111   -0.0015
     42 C42         2.3935    3.5962    0.5044 C.3     1  WATER21111    0.0033
     43 ****        2.8433   -0.9542    1.3249 H       1  WATER21111   -0.0027
     44 ****        4.2170    2.1414   -0.6842 H       1  WATER21111    0.0747
     45 ****        5.6454    0.3379   -1.7869 O.2     1  WATER21111   -0.2880
     46 ****       -0.2826    3.1238    0.5819 H       1  WATER21111    0.0078
     47 ****        0.1851    2.7786   -1.1034 H       1  WATER21111    0.0124
     48 ****        3.4181    3.4316    0.9087 H       1  WATER21111    0.0084
     49 C49         2.4575    4.4964   -0.7473 C.3     1  WATER21111   -0.0067
     50 ****        1.8651    4.1685    1.3054 H       1  WATER21111    0.0030
     51 C51         3.4574    5.6646   -0.6262 C.3     1  WATER21111   -0.0220
     52 ****        2.7164    3.8949   -1.6469 H       1  WATER21111    0.0084
     53 ****        1.4435    4.9167   -0.9402 H       1  WATER21111    0.0031
     54 C54         3.4775    6.6131   -1.8283 C.3     1  WATER21111    0.0292
     55 ****        3.2257    6.2595    0.2874 H       1  WATER21111    0.0045
     56 ****        4.4856    5.2603   -0.4805 H       1  WATER21111    0.0080
     57 ****        4.2272    7.4154   -1.6693 H       1  WATER21111   -0.0046
     58 ****        3.7473    6.0863   -2.7659 H       1  WATER21111   -0.0031
     59 ****        2.4946    7.1023   -1.9841 H       1  WATER21111   -0.0061
@<TRIPOS>BOND
     1     1    11    1
     2     6    11    1
     3     6     7    1
     4     7     4    1
     5     7     8    1
     6     8    47    1
     7     8    46    1
     8     8     9    1
     9     9    27    1
    10     9    15    1
    11    15    16    1
    12    16    17    1
    13    17    36    1
    14    17    37    1
    15    17    18    1
    16    18    21    2
    17    14    18    1
    18    14    19    1
    19    19    40    1
    20    19    39    1
    21    19    38    1
    22    13    14    1
    23    13    31    1
    24    12    13    1
    25    12    30    1
    26    12    29    1
    27    10    12    1
    28    10    11    1
    29    10    28    1
    30     9    10    1
    31    13    32    1
    32    14    15    1
    33    16    34    1
    34    16    35    1
    35    15    33    1
    36     7    42    1
    37    42    48    1
    38    42    50    1
    39    42    49    1
    40    49    51    1
    41    51    54    1
    42    54    57    1
    43    54    59    1
    44    54    58    1
    45    51    56    1
    46    51    55    1
    47    49    52    1
    48    49    53    1
    49     5     6    2
    50     3     5    2
    51     3    45    2
    52     2     3    1
    53     2    25    1
    54     2    24    1
    55     1     2    1
    56     5    44    1
    57    11    20    1
    58    20    41    1
    59    20    43    1
    60    20    26    1
    61     1    23    1
    62     1    22    1
