@<TRIPOS>MOLECULE
43
 56 59 0 0 0
SMALL
GASTEIGER

@<TRIPOS>ATOM
      1 ****        2.3134   -1.1619   -1.5565 C.3     1  WATER21111    0.0030
      2 ****        3.8453   -1.2447   -1.5632 C.3     1  WATER21111   -0.0466
      3 C3          4.4982    0.1248   -1.3978 C.1     1  WATER21111    0.2540
      4 ****        1.6049    1.8162    1.4895 H       1  WATER21111    0.0153
      5 C5          3.6672    1.1999   -0.7780 C.1     1  WATER21111   -0.1365
      6 C5          2.3965    1.0716   -0.3168 C.2     1  WATER21111   -0.0342
      7 C6          1.6749    2.2009    0.4360 C.3     1  WATER21111    0.0125
      8 C7          0.2239    2.3665   -0.0833 C.3     1  WATER21111    0.0089
      9 ****       -0.5874    1.0522   -0.0146 C.3     1  WATER21111   -0.0174
     10 ****        0.1320   -0.0677   -0.8436 C.3     1  WATER21111   -0.0109
     11 ****        1.6510   -0.2883   -0.4273 C.3     1  WATER21111   -0.0309
     12 ****       -0.7189   -1.3716   -0.9366 C.3     1  WATER21111   -0.0034
     13 ****       -2.2293   -1.1956   -1.2256 C.3     1  WATER21111    0.0219
     14 ****       -2.8964   -0.1105   -0.3413 C.3     1  WATER21111   -0.1174
     15 ****       -2.0456    1.2041   -0.5264 C.3     1  WATER21111   -0.0267
     16 ****       -2.9725    2.3534   -0.0539 C.3     1  WATER21111   -0.0014
     17 ****       -4.3945    1.9068   -0.4665 C.3     1  WATER21111   -0.0515
     18 ****       -4.2993    0.4027   -0.7816 C.2     1  WATER21111    0.2324
     19 ****       -3.0718   -0.6293    1.1153 C.3     1  WATER21111    0.0544
     20 ****        1.8061   -1.0218    0.9406 C.3     1  WATER21111    0.0465
     21 ****       -5.1856   -0.2652   -1.2864 O.2     1  WATER21111   -0.2714
     22 ****        1.9992   -0.7751   -2.5542 H       1  WATER21111    0.0101
     23 ****        1.9322   -2.2065   -1.5008 H       1  WATER21111    0.0118
     24 ****        4.2116   -1.9134   -0.7511 H       1  WATER21111    0.0314
     25 ****        4.1716   -1.7169   -2.5177 H       1  WATER21111    0.0354
     26 ****        1.5620   -2.1007    0.8667 H       1  WATER21111   -0.0005
     27 ****       -0.6294    0.7573    1.0606 H       1  WATER21111    0.0192
     28 ****        0.1786    0.3221   -1.8950 H       1  WATER21111    0.0112
     29 ****       -0.3209   -2.0068   -1.7609 H       1  WATER21111    0.0074
     30 ****       -0.6110   -1.9780   -0.0108 H       1  WATER21111    0.0076
     31 ****       -2.3695   -0.9488   -2.3027 H       1  WATER21111    0.0112
     32 ****       -2.7283   -2.1802   -1.0829 H       1  WATER21111    0.0179
     33 ****       -1.9534    1.3787   -1.6339 H       1  WATER21111    0.0119
     34 ****       -2.7071    3.3147   -0.5413 H       1  WATER21111    0.0161
     35 ****       -2.9104    2.5325    1.0395 H       1  WATER21111    0.0162
     36 ****       -5.1315    2.0879    0.3438 H       1  WATER21111    0.0362
     37 ****       -4.7510    2.4709   -1.3542 H       1  WATER21111    0.0368
     38 ****       -3.7573   -1.5019    1.1378 H       1  WATER21111    0.0063
     39 ****       -2.1198   -0.9575    1.5754 H       1  WATER21111    0.0003
     40 ****       -3.5002    0.1386    1.7906 H       1  WATER21111   -0.0048
     41 ****        1.1531   -0.5980    1.7283 H       1  WATER21111   -0.0015
     42 C42         2.4229    3.5754    0.5910 C.3     1  WATER21111   -0.0567
     43 ****        2.8461   -0.9570    1.3216 H       1  WATER21111   -0.0026
     44 ****        4.2075    2.1478   -0.7111 H       1  WATER21111    0.0748
     45 ****        5.6580    0.3306   -1.7444 O.2     1  WATER21111   -0.2883
     46 ****       -0.2951    3.1340    0.5324 H       1  WATER21111    0.0082
     47 ****        0.2289    2.7549   -1.1259 H       1  WATER21111    0.0128
     48 C48         2.4332    4.4809   -0.6589 C.3     1  WATER21111    0.0400
     49 C49         1.9569    4.3669    1.8371 C.3     1  WATER21111    0.0384
     50 ****        3.4926    3.3317    0.8184 H       1  WATER21111    0.0152
     51 ****        3.2266    5.2520   -0.5668 H       1  WATER21111   -0.0025
     52 ****        2.6395    3.9151   -1.5888 H       1  WATER21111   -0.0023
     53 ****        1.4727    5.0153   -0.8052 H       1  WATER21111   -0.0049
     54 ****        2.6103    5.2495    1.9986 H       1  WATER21111   -0.0028
     55 ****        0.9174    4.7403    1.7522 H       1  WATER21111   -0.0046
     56 ****        2.0185    3.7484    2.7557 H       1  WATER21111   -0.0054
@<TRIPOS>BOND
     1     1     2    1
     2     2    25    1
     3     2    24    1
     4     2     3    1
     5     3    45    2
     6     3     5    2
     7     5     6    2
     8     6     7    1
     9     7     4    1
    10     7    42    1
    11    42    50    1
    12    42    49    1
    13    49    54    1
    14    49    56    1
    15    49    55    1
    16    42    48    1
    17    48    52    1
    18    48    53    1
    19    48    51    1
    20     7     8    1
    21     8    47    1
    22     8     9    1
    23     9    27    1
    24     9    10    1
    25    10    28    1
    26    10    11    1
    27     6    11    1
    28     1    11    1
    29    11    20    1
    30    20    43    1
    31    20    41    1
    32    20    26    1
    33    10    12    1
    34    12    30    1
    35    12    13    1
    36    13    31    1
    37    13    32    1
    38    13    14    1
    39    14    19    1
    40    19    38    1
    41    19    39    1
    42    19    40    1
    43    14    18    1
    44    17    18    1
    45    16    17    1
    46    16    34    1
    47    16    35    1
    48    15    16    1
    49    15    33    1
    50     9    15    1
    51    14    15    1
    52    17    36    1
    53    17    37    1
    54    18    21    2
    55    12    29    1
    56     8    46    1
    57     5    44    1
    58     1    22    1
    59     1    23    1
