@<TRIPOS>MOLECULE
44
 57 61 0 0 0
SMALL
GASTEIGER

@<TRIPOS>ATOM
      1 ****        2.3391   -1.1074   -1.6303 C.3     1  WATER21111    0.0039
      2 ****        3.8527   -1.3072   -1.4491 C.3     1  WATER21111   -0.0479
      3 C3          4.5819   -0.0145   -1.0817 C.1     1  WATER21111    0.2542
      4 C4          2.1706    2.9326    1.3685 C.ar    1  WATER21111   -0.0832
      5 C5          3.7325    1.1228   -0.6201 C.1     1  WATER21111   -0.1353
      6 C5          2.3969    1.0627   -0.3616 C.2     1  WATER21111   -0.0367
      7 C6          1.7054    2.3746    0.0211 C.3     1  WATER21111    0.0540
      8 C7          0.1634    2.4183   -0.1365 C.3     1  WATER21111    0.0101
      9 ****       -0.5864    1.0702   -0.0546 C.3     1  WATER21111   -0.0130
     10 ****        0.1233   -0.0144   -0.9387 C.3     1  WATER21111   -0.0093
     11 ****        1.6272   -0.2697   -0.5012 C.3     1  WATER21111   -0.0276
     12 ****       -0.7213   -1.3146   -1.1155 C.3     1  WATER21111   -0.0035
     13 ****       -2.2452   -1.1504   -1.3214 C.3     1  WATER21111    0.0220
     14 ****       -2.8858   -0.1394   -0.3367 C.3     1  WATER21111   -0.1171
     15 ****       -2.0729    1.2020   -0.4884 C.3     1  WATER21111   -0.0274
     16 ****       -3.0004    2.3014    0.0913 C.3     1  WATER21111   -0.0019
     17 ****       -4.4307    1.8462   -0.2798 C.3     1  WATER21111   -0.0515
     18 ****       -4.3212    0.3622   -0.6738 C.2     1  WATER21111    0.2324
     19 ****       -2.9712   -0.7470    1.0929 C.3     1  WATER21111    0.0547
     20 ****        1.7282   -1.0484    0.8476 C.3     1  WATER21111    0.0472
     21 ****       -5.2200   -0.3013   -1.1623 O.2     1  WATER21111   -0.2716
     22 ****        2.1669   -0.6186   -2.6168 H       1  WATER21111    0.0109
     23 ****        1.8838   -2.1196   -1.7079 H       1  WATER21111    0.0122
     24 ****        4.0621   -2.0726   -0.6680 H       1  WATER21111    0.0326
     25 ****        4.2693   -1.7186   -2.3972 H       1  WATER21111    0.0339
     26 ****        1.5775   -2.1387    0.7091 H       1  WATER21111   -0.0016
     27 ****       -0.5685    0.7551    1.0144 H       1  WATER21111    0.0198
     28 ****        0.1854    0.4266   -1.9685 H       1  WATER21111    0.0111
     29 ****       -0.3477   -1.8602   -2.0129 H       1  WATER21111    0.0069
     30 ****       -0.5662   -2.0051   -0.2577 H       1  WATER21111    0.0073
     31 ****       -2.4413   -0.8365   -2.3720 H       1  WATER21111    0.0109
     32 ****       -2.7202   -2.1522   -1.2214 H       1  WATER21111    0.0181
     33 ****       -2.0375    1.4357   -1.5883 H       1  WATER21111    0.0115
     34 ****       -2.7789    3.2950   -0.3509 H       1  WATER21111    0.0162
     35 ****       -2.8900    2.4196    1.1892 H       1  WATER21111    0.0168
     36 ****       -5.1342    1.9728    0.5695 H       1  WATER21111    0.0365
     37 ****       -4.8358    2.4454   -1.1225 H       1  WATER21111    0.0366
     38 ****       -3.6253   -1.6437    1.0961 H       1  WATER21111    0.0064
     39 ****       -1.9871   -1.0660    1.4869 H       1  WATER21111    0.0001
     40 ****       -3.3911   -0.0349    1.8319 H       1  WATER21111   -0.0046
     41 ****        0.9787   -0.7175    1.5913 H       1  WATER21111   -0.0020
     42 ****        2.0575    3.1038   -0.7616 H       1  WATER21111    0.0145
     43 ****        2.7218   -0.9239    1.3245 H       1  WATER21111   -0.0009
     44 ****        4.2791    2.0654   -0.5128 H       1  WATER21111    0.0760
     45 ****        5.8030    0.0812   -1.1615 O.2     1  WATER21111   -0.2872
     46 ****       -0.2573    3.1097    0.6282 H       1  WATER21111    0.0120
     47 ****       -0.0505    2.9002   -1.1200 H       1  WATER21111    0.0053
     48 C48         1.9228    2.2929    2.6047 C.ar    1  WATER21111   -0.0392
     49 C49         2.8765    4.1631    1.4029 C.ar    1  WATER21111   -0.0408
     50 ****        2.1696    2.3228    4.7549 H       1  WATER21111    0.0615
     51 C51         3.3257    4.7174    2.6133 C.ar    1  WATER21111   -0.0615
     52 ****        1.3690    1.3558    2.6503 H       1  WATER21111    0.0555
     53 ****        3.0861    4.7079    0.4802 H       1  WATER21111    0.0584
     54 ****        3.4287    4.4834    4.7689 H       1  WATER21111    0.0630
     55 ****        3.8690    5.6630    2.6067 H       1  WATER21111    0.0628
     56 C56         3.0780    4.0574    3.8289 C.ar    1  WATER21111   -0.0480
     57 C57         2.3726    2.8439    3.8185 C.ar    1  WATER21111   -0.0632
@<TRIPOS>BOND
     1     1    23    1
     2     1    11    1
     3    11    20    1
     4    20    41    1
     5    20    43    1
     6    20    26    1
     7     6    11    1
     8     6     7    1
     9     7    42    1
    10     7     8    1
    11     8    46    1
    12     8     9    1
    13     9    15    1
    14    15    33    1
    15    15    16    1
    16    16    17    1
    17    17    36    1
    18    17    37    1
    19    17    18    1
    20    18    21    2
    21    14    18    1
    22    14    15    1
    23    14    19    1
    24    19    40    1
    25    19    39    1
    26    19    38    1
    27    13    14    1
    28    13    31    1
    29    13    32    1
    30    12    13    1
    31    12    30    1
    32    12    29    1
    33    10    12    1
    34     9    10    1
    35    10    28    1
    36    10    11    1
    37    16    34    1
    38    16    35    1
    39     9    27    1
    40     8    47    1
    41     7     4    1
    42     4    49   ar
    43    49    53    1
    44    49    51   ar
    45    51    56   ar
    46    56    54    1
    47    56    57   ar
    48    57    50    1
    49    48    57   ar
    50    48    52    1
    51     4    48   ar
    52    51    55    1
    53     5     6    2
    54     3     5    2
    55     3    45    2
    56     2     3    1
    57     1     2    1
    58     2    25    1
    59     2    24    1
    60     5    44    1
    61     1    22    1
