@<TRIPOS>MOLECULE
45
 57 61 0 0 0
SMALL
GASTEIGER

@<TRIPOS>ATOM
      1 ****        2.3230   -1.2148   -1.4919 C.3     1  WATER21111    0.0045
      2 ****        3.8579   -1.2500   -1.5122 C.3     1  WATER21111   -0.0473
      3 C3          4.4707    0.1472   -1.4717 C.1     1  WATER21111    0.2537
      4 ****        1.6632    1.8923    1.4723 H       1  WATER21111    0.0172
      5 C5          3.6635    1.2049   -0.7955 C.1     1  WATER21111   -0.1311
      6 C5          2.3960    1.0629   -0.3311 C.2     1  WATER21111   -0.0397
      7 C6          1.6876    2.2117    0.3955 C.3     1  WATER21111    0.0530
      8 C7          0.2083    2.3720   -0.0425 C.3     1  WATER21111    0.0093
      9 ****       -0.5897    1.0488    0.0034 C.3     1  WATER21111   -0.0170
     10 ****        0.1373   -0.0604   -0.8376 C.3     1  WATER21111   -0.0106
     11 ****        1.6498   -0.2944   -0.4063 C.3     1  WATER21111   -0.0296
     12 ****       -0.7142   -1.3609   -0.9606 C.3     1  WATER21111   -0.0037
     13 ****       -2.2203   -1.1779   -1.2651 C.3     1  WATER21111    0.0219
     14 ****       -2.8968   -0.1123   -0.3644 C.3     1  WATER21111   -0.1175
     15 ****       -2.0459    1.2063   -0.5133 C.3     1  WATER21111   -0.0269
     16 ****       -2.9776    2.3435   -0.0205 C.3     1  WATER21111   -0.0016
     17 ****       -4.3954    1.9060   -0.4562 C.3     1  WATER21111   -0.0515
     18 ****       -4.2957    0.4100   -0.8068 C.2     1  WATER21111    0.2324
     19 ****       -3.0848   -0.6625    1.0789 C.3     1  WATER21111    0.0544
     20 ****        1.7877   -0.9862    0.9856 C.3     1  WATER21111    0.0466
     21 ****       -5.1757   -0.2459   -1.3377 O.2     1  WATER21111   -0.2715
     22 ****        1.9876   -0.8958   -2.5063 H       1  WATER21111    0.0099
     23 ****        1.9723   -2.2644   -1.3705 H       1  WATER21111    0.0120
     24 ****        4.2555   -1.8328   -0.6501 H       1  WATER21111    0.0304
     25 ****        4.1864   -1.7957   -2.4258 H       1  WATER21111    0.0348
     26 ****        1.4978   -2.0557    0.9509 H       1  WATER21111   -0.0006
     27 ****       -0.6351    0.7384    1.0740 H       1  WATER21111    0.0191
     28 ****        0.1999    0.3456   -1.8820 H       1  WATER21111    0.0113
     29 ****       -0.3064   -1.9843   -1.7891 H       1  WATER21111    0.0074
     30 ****       -0.6175   -1.9807   -0.0425 H       1  WATER21111    0.0075
     31 ****       -2.3462   -0.9068   -2.3381 H       1  WATER21111    0.0113
     32 ****       -2.7223   -2.1646   -1.1503 H       1  WATER21111    0.0179
     33 ****       -1.9468    1.4056   -1.6161 H       1  WATER21111    0.0117
     34 ****       -2.7088    3.3171   -0.4807 H       1  WATER21111    0.0165
     35 ****       -2.9253    2.4956    1.0775 H       1  WATER21111    0.0164
     36 ****       -5.1394    2.0665    0.3518 H       1  WATER21111    0.0362
     37 ****       -4.7445    2.4919   -1.3326 H       1  WATER21111    0.0368
     38 ****       -3.7649   -1.5396    1.0752 H       1  WATER21111    0.0062
     39 ****       -2.1354   -0.9935    1.5423 H       1  WATER21111    0.0002
     40 ****       -3.5257    0.0882    1.7653 H       1  WATER21111   -0.0048
     41 ****        1.1625   -0.5101    1.7658 H       1  WATER21111   -0.0020
     42 C42         2.3946    3.5681    0.3744 C.ar    1  WATER21111   -0.0891
     43 ****        2.8338   -0.9511    1.3540 H       1  WATER21111   -0.0026
     44 ****        4.2023    2.1511   -0.6916 H       1  WATER21111    0.0787
     45 ****        5.5724    0.3860   -1.9574 O.2     1  WATER21111   -0.2868
     46 ****       -0.2700    3.1113    0.6397 H       1  WATER21111    0.0104
     47 ****        0.1527    2.8087   -1.0643 H       1  WATER21111    0.0120
     48 C48         2.9391    4.0904    1.5742 C.ar    1  WATER21111   -0.0397
     49 C49         2.5106    4.3587   -0.7953 C.ar    1  WATER21111   -0.0375
     50 ****        3.9837    5.7205    2.5418 H       1  WATER21111    0.0621
     51 C51         3.1394    5.6159   -0.7661 C.ar    1  WATER21111   -0.0622
     52 ****        2.8773    3.5217    2.5041 H       1  WATER21111    0.0574
     53 ****        2.1204    4.0028   -1.7505 H       1  WATER21111    0.0589
     54 ****        4.1624    7.0888    0.4558 H       1  WATER21111    0.0629
     55 ****        3.2142    6.2032   -1.6820 H       1  WATER21111    0.0628
     56 C56         3.6731    6.1149    0.4338 C.ar    1  WATER21111   -0.0471
     57 C57         3.5712    5.3454    1.6045 C.ar    1  WATER21111   -0.0634
@<TRIPOS>BOND
     1     1     2    1
     2     2    24    1
     3     2    25    1
     4     2     3    1
     5     3     5    2
     6     5     6    2
     7     6     7    1
     8     7    42    1
     9    42    48   ar
    10    48    52    1
    11    48    57   ar
    12    57    50    1
    13    56    57   ar
    14    56    54    1
    15    51    56   ar
    16    51    55    1
    17    49    51   ar
    18    42    49   ar
    19    49    53    1
    20     7     8    1
    21     8    46    1
    22     8    47    1
    23     8     9    1
    24     9    27    1
    25     9    10    1
    26    10    28    1
    27    10    12    1
    28    12    29    1
    29    12    13    1
    30    13    31    1
    31    13    14    1
    32    14    18    1
    33    18    21    2
    34    17    18    1
    35    17    37    1
    36    16    17    1
    37    16    34    1
    38    16    35    1
    39    15    16    1
    40    14    15    1
    41    15    33    1
    42     9    15    1
    43    17    36    1
    44    14    19    1
    45    19    39    1
    46    19    38    1
    47    19    40    1
    48    13    32    1
    49    12    30    1
    50    10    11    1
    51    11    20    1
    52    20    43    1
    53    20    41    1
    54    20    26    1
    55     6    11    1
    56     1    11    1
    57     7     4    1
    58     5    44    1
    59     3    45    2
    60     1    22    1
    61     1    23    1
