@<TRIPOS>MOLECULE
46
 60 64 0 0 0
SMALL
GASTEIGER

@<TRIPOS>ATOM
      1 ****        2.3258   -1.1644   -1.5618 C.3     1  WATER21111    0.0033
      2 ****        3.8591   -1.2532   -1.5142 C.3     1  WATER21111   -0.0470
      3 C3          4.5188    0.1137   -1.3362 C.1     1  WATER21111    0.2541
      4 C4          1.9989    2.4065    1.8173 C.3     1  WATER21111    0.0593
      5 C5          3.6738    1.1851   -0.7328 C.1     1  WATER21111   -0.1361
      6 C5          2.3868    1.0425   -0.3169 C.2     1  WATER21111   -0.0397
      7 C6          1.7027    2.2720    0.2903 C.3     1  WATER21111   -0.0034
      8 C7          0.2081    2.3773   -0.0948 C.3     1  WATER21111    0.0104
      9 ****       -0.5855    1.0534   -0.0193 C.3     1  WATER21111   -0.0141
     10 ****        0.1283   -0.0602   -0.8651 C.3     1  WATER21111   -0.0102
     11 ****        1.6388   -0.3044   -0.4358 C.3     1  WATER21111   -0.0263
     12 ****       -0.7254   -1.3591   -0.9942 C.3     1  WATER21111   -0.0036
     13 ****       -2.2366   -1.1761   -1.2692 C.3     1  WATER21111    0.0218
     14 ****       -2.8953   -0.1180   -0.3474 C.3     1  WATER21111   -0.1175
     15 ****       -2.0519    1.2040   -0.5106 C.3     1  WATER21111   -0.0271
     16 ****       -2.9795    2.3369   -0.0006 C.3     1  WATER21111   -0.0016
     17 ****       -4.4031    1.8953   -0.4121 C.3     1  WATER21111   -0.0516
     18 ****       -4.3065    0.3980   -0.7564 C.2     1  WATER21111    0.2324
     19 ****       -3.0473   -0.6756    1.0972 C.3     1  WATER21111    0.0546
     20 ****        1.7684   -1.0589    0.9230 C.3     1  WATER21111    0.0474
     21 ****       -5.1980   -0.2643   -1.2597 O.2     1  WATER21111   -0.2716
     22 ****        2.0451   -0.7586   -2.5615 H       1  WATER21111    0.0105
     23 ****        1.9378   -2.2074   -1.5368 H       1  WATER21111    0.0122
     24 ****        4.1948   -1.9186   -0.6865 H       1  WATER21111    0.0314
     25 ****        4.2142   -1.7331   -2.4545 H       1  WATER21111    0.0348
     26 ****        1.5457   -2.1406    0.8222 H       1  WATER21111   -0.0008
     27 ****       -0.6118    0.7513    1.0536 H       1  WATER21111    0.0193
     28 ****        0.1877    0.3484   -1.9086 H       1  WATER21111    0.0111
     29 ****       -0.3294   -1.9670   -1.8399 H       1  WATER21111    0.0072
     30 ****       -0.6132   -1.9952   -0.0890 H       1  WATER21111    0.0075
     31 ****       -2.3838   -0.8966   -2.3374 H       1  WATER21111    0.0112
     32 ****       -2.7355   -2.1644   -1.1535 H       1  WATER21111    0.0181
     33 ****       -1.9727    1.4040   -1.6148 H       1  WATER21111    0.0118
     34 ****       -2.7226    3.3120   -0.4645 H       1  WATER21111    0.0167
     35 ****       -2.9089    2.4867    1.0967 H       1  WATER21111    0.0160
     36 ****       -5.1354    2.0605    0.4057 H       1  WATER21111    0.0362
     37 ****       -4.7654    2.4751   -1.2873 H       1  WATER21111    0.0368
     38 ****       -3.7138   -1.5631    1.1034 H       1  WATER21111    0.0063
     39 ****       -2.0845   -0.9939    1.5414 H       1  WATER21111    0.0001
     40 ****       -3.4865    0.0663    1.7944 H       1  WATER21111   -0.0049
     41 ****        1.0848   -0.6638    1.6987 H       1  WATER21111   -0.0011
     42 ****        2.1713    3.1679   -0.1971 H       1  WATER21111    0.0191
     43 ****        2.7957   -0.9843    1.3353 H       1  WATER21111   -0.0025
     44 ****        4.1831    2.1501   -0.6375 H       1  WATER21111    0.0743
     45 ****        5.6850    0.3164   -1.6611 O.2     1  WATER21111   -0.2874
     46 ****       -0.2816    3.1392    0.5507 H       1  WATER21111    0.0114
     47 ****        0.1551    2.7904   -1.1298 H       1  WATER21111    0.0078
     48 ****        3.0505    2.0882    2.0114 H       1  WATER21111    0.0094
     49 C1          2.6217    6.1008    2.7049 C.ar    2  BENZENE222   -0.0625
     50 ****        1.3700    1.6877    2.3880 H       1  WATER21111    0.0058
     51 C2          1.5380    6.3802    3.5548 C.ar    2  BENZENE222   -0.0495
     52 C3          0.6015    5.3712    3.8340 C.ar    2  BENZENE222   -0.0643
     53 C4          0.7462    4.0941    3.2645 C.ar    2  BENZENE222   -0.0406
     54 C5          1.8258    3.7962    2.3991 C.ar    2  BENZENE222   -0.0961
     55 C6          2.7647    4.8235    2.1366 C.ar    2  BENZENE222   -0.0390
     56 H1          3.3567    6.8762    2.4859 H       2  BENZENE222    0.0622
     57 H2          1.4265    7.3710    3.9955 H       2  BENZENE222    0.0620
     58 H3         -0.2409    5.5762    4.4956 H       2  BENZENE222    0.0609
     59 H4          0.0061    3.3296    3.5077 H       2  BENZENE222    0.0561
     60 H6          3.6224    4.6358    1.4882 H       2  BENZENE222    0.0590
@<TRIPOS>BOND
     1     1    23    1
     2     1    22    1
     3     1     2    1
     4     2    25    1
     5     2    24    1
     6     2     3    1
     7     3    45    2
     8     3     5    2
     9     5    44    1
    10     5     6    2
    11     6     7    1
    12     7     8    1
    13     8    47    1
    14     8    46    1
    15     8     9    1
    16     9    10    1
    17    10    12    1
    18    12    30    1
    19    12    13    1
    20    13    31    1
    21    13    32    1
    22    13    14    1
    23    14    18    1
    24    18    21    2
    25    17    18    1
    26    17    37    1
    27    16    17    1
    28    16    34    1
    29    15    16    1
    30    15    33    1
    31     9    15    1
    32    14    15    1
    33    16    35    1
    34    17    36    1
    35    14    19    1
    36    19    39    1
    37    19    40    1
    38    19    38    1
    39    12    29    1
    40    10    28    1
    41    10    11    1
    42     6    11    1
    43     1    11    1
    44    11    20    1
    45    20    41    1
    46    20    43    1
    47    20    26    1
    48     9    27    1
    49     7     4    1
    50    54     4    1
    51    55    54   ar
    52    55    60    1
    53    49    55   ar
    54    49    56    1
    55    49    51   ar
    56    52    51   ar
    57    53    52   ar
    58    54    53   ar
    59    53    59    1
    60    52    58    1
    61    51    57    1
    62     4    48    1
    63     4    50    1
    64     7    42    1
