@<TRIPOS>MOLECULE
47
 60 64 0 0 0
SMALL
GASTEIGER

@<TRIPOS>ATOM
      1 ****        2.3126   -1.1679   -1.5562 C.3     1  WATER21111    0.0039
      2 ****        3.8453   -1.2455   -1.5679 C.3     1  WATER21111   -0.0470
      3 C3          4.5092    0.1145   -1.3788 C.1     1  WATER21111    0.2548
      4 ****        1.6472    1.8852    1.4655 H       1  WATER21111    0.0151
      5 C5          3.6861    1.1862   -0.7456 C.1     1  WATER21111   -0.1405
      6 C5          2.3992    1.0746   -0.3281 C.2     1  WATER21111   -0.0294
      7 C6          1.6800    2.2213    0.3918 C.3     1  WATER21111    0.0000
      8 C7          0.2124    2.3703   -0.0790 C.3     1  WATER21111    0.0100
      9 ****       -0.5899    1.0518   -0.0123 C.3     1  WATER21111   -0.0171
     10 ****        0.1304   -0.0617   -0.8496 C.3     1  WATER21111   -0.0108
     11 ****        1.6493   -0.2826   -0.4356 C.3     1  WATER21111   -0.0306
     12 ****       -0.7188   -1.3666   -0.9465 C.3     1  WATER21111   -0.0035
     13 ****       -2.2302   -1.1931   -1.2312 C.3     1  WATER21111    0.0220
     14 ****       -2.8984   -0.1133   -0.3412 C.3     1  WATER21111   -0.1176
     15 ****       -2.0496    1.2030   -0.5206 C.3     1  WATER21111   -0.0267
     16 ****       -2.9777    2.3491   -0.0422 C.3     1  WATER21111   -0.0015
     17 ****       -4.3996    1.9022   -0.4548 C.3     1  WATER21111   -0.0515
     18 ****       -4.3018    0.4003   -0.7794 C.2     1  WATER21111    0.2324
     19 ****       -3.0723   -0.6392    1.1129 C.3     1  WATER21111    0.0545
     20 ****        1.8025   -1.0062    0.9387 C.3     1  WATER21111    0.0461
     21 ****       -5.1864   -0.2655   -1.2900 O.2     1  WATER21111   -0.2717
     22 ****        1.9938   -0.7921   -2.5566 H       1  WATER21111    0.0099
     23 ****        1.9350   -2.2129   -1.4876 H       1  WATER21111    0.0122
     24 ****        4.2116   -1.9297   -0.7681 H       1  WATER21111    0.0311
     25 ****        4.1686   -1.7023   -2.5311 H       1  WATER21111    0.0352
     26 ****        1.5429   -2.0821    0.8757 H       1  WATER21111   -0.0003
     27 ****       -0.6275    0.7516    1.0616 H       1  WATER21111    0.0189
     28 ****        0.1759    0.3336   -1.8990 H       1  WATER21111    0.0117
     29 ****       -0.3210   -1.9978   -1.7738 H       1  WATER21111    0.0072
     30 ****       -0.6079   -1.9759   -0.0229 H       1  WATER21111    0.0073
     31 ****       -2.3734   -0.9424   -2.3070 H       1  WATER21111    0.0113
     32 ****       -2.7266   -2.1794   -1.0908 H       1  WATER21111    0.0177
     33 ****       -1.9586    1.3830   -1.6274 H       1  WATER21111    0.0121
     34 ****       -2.7142    3.3127   -0.5260 H       1  WATER21111    0.0168
     35 ****       -2.9145    2.5240    1.0519 H       1  WATER21111    0.0160
     36 ****       -5.1348    2.0768    0.3584 H       1  WATER21111    0.0360
     37 ****       -4.7592    2.4713   -1.3380 H       1  WATER21111    0.0369
     38 ****       -3.7593   -1.5108    1.1313 H       1  WATER21111    0.0061
     39 ****       -2.1200   -0.9710    1.5697 H       1  WATER21111    0.0002
     40 ****       -3.4989    0.1255    1.7932 H       1  WATER21111   -0.0048
     41 ****        1.1613   -0.5656    1.7269 H       1  WATER21111   -0.0014
     42 C42         2.3777    3.6174    0.4960 C.3     1  WATER21111    0.0576
     43 ****        2.8455   -0.9530    1.3132 H       1  WATER21111   -0.0028
     44 ****        4.2445    2.1187   -0.6291 H       1  WATER21111    0.0749
     45 ****        5.6710    0.3159   -1.7212 O.2     1  WATER21111   -0.2886
     46 ****       -0.2863    3.1237    0.5723 H       1  WATER21111    0.0079
     47 ****        0.1831    2.7772   -1.1142 H       1  WATER21111    0.0158
     48 ****        3.4759    3.4937    0.6311 H       1  WATER21111    0.0121
     49 C1          2.4941    5.5623   -2.8417 C.ar    2  BENZENE222   -0.0632
     50 ****        2.0418    4.0441    1.4735 H       1  WATER21111    0.0012
     51 C2          1.7473    6.7081   -2.5243 C.ar    2  BENZENE222   -0.0496
     52 C3          1.1968    6.8355   -1.2378 C.ar    2  BENZENE222   -0.0650
     53 C4          1.3929    5.8248   -0.2819 C.ar    2  BENZENE222   -0.0421
     54 C5          2.1411    4.6578   -0.5821 C.ar    2  BENZENE222   -0.0932
     55 C6          2.6889    4.5524   -1.8822 C.ar    2  BENZENE222   -0.0376
     56 H1          2.9288    5.4528   -3.8359 H       2  BENZENE222    0.0625
     57 H2          1.5977    7.4915   -3.2674 H       2  BENZENE222    0.0620
     58 H3          0.6169    7.7217   -0.9778 H       2  BENZENE222    0.0609
     59 H4          0.9540    5.9596    0.7087 H       2  BENZENE222    0.0563
     60 H6          3.2802    3.6839   -2.1720 H       2  BENZENE222    0.0596
@<TRIPOS>BOND
     1     1    23    1
     2     1    22    1
     3     1     2    1
     4     2     3    1
     5     3     5    2
     6     5    44    1
     7     5     6    2
     8     6    11    1
     9     1    11    1
    10    11    20    1
    11    20    41    1
    12    20    26    1
    13    20    43    1
    14    10    11    1
    15    10    28    1
    16    10    12    1
    17    12    29    1
    18    12    30    1
    19    12    13    1
    20    13    32    1
    21    13    31    1
    22    13    14    1
    23    14    18    1
    24    18    21    2
    25    17    18    1
    26    17    37    1
    27    17    36    1
    28    16    17    1
    29    16    34    1
    30    15    16    1
    31    15    33    1
    32     9    15    1
    33     8     9    1
    34     8    46    1
    35     7     8    1
    36     7    42    1
    37    54    42    1
    38    55    54   ar
    39    55    60    1
    40    49    55   ar
    41    49    51   ar
    42    52    51   ar
    43    52    58    1
    44    53    52   ar
    45    53    59    1
    46    54    53   ar
    47    51    57    1
    48    49    56    1
    49    42    50    1
    50    42    48    1
    51     6     7    1
    52     7     4    1
    53     8    47    1
    54     9    27    1
    55     9    10    1
    56    14    15    1
    57    16    35    1
    58    14    19    1
    59    19    38    1
    60    19    39    1
    61    19    40    1
    62     3    45    2
    63     2    24    1
    64     2    25    1
