@<TRIPOS>MOLECULE
49
 49 52 0 0 0
SMALL
GASTEIGER

@<TRIPOS>ATOM
      1 ****        2.3282   -1.2003   -1.5179 C.3     1  WATER21111    0.0038
      2 ****        3.8644   -1.2457   -1.5046 C.3     1  WATER21111   -0.0470
      3 C3          4.4925    0.1442   -1.4126 C.1     1  WATER21111    0.2539
      4 C4          1.9230    2.2805    1.7665 C.2     1  WATER21111   -0.1815
      5 C5          3.6602    1.2020   -0.7690 C.1     1  WATER21111   -0.1294
      6 C5          2.3889    1.0372   -0.3209 C.2     1  WATER21111   -0.0415
      7 C6          1.7005    2.2441    0.3258 C.3     1  WATER21111    0.1237
      8 C7          0.2051    2.3754   -0.0593 C.3     1  WATER21111    0.0096
      9 ****       -0.5871    1.0500   -0.0045 C.3     1  WATER21111   -0.0146
     10 ****        0.1330   -0.0617   -0.8502 C.3     1  WATER21111   -0.0101
     11 ****        1.6420   -0.3106   -0.4152 C.3     1  WATER21111   -0.0257
     12 ****       -0.7216   -1.3592   -0.9851 C.3     1  WATER21111   -0.0035
     13 ****       -2.2305   -1.1745   -1.2718 C.3     1  WATER21111    0.0218
     14 ****       -2.8963   -0.1144   -0.3571 C.3     1  WATER21111   -0.1172
     15 ****       -2.0475    1.2051   -0.5097 C.3     1  WATER21111   -0.0273
     16 ****       -2.9762    2.3400   -0.0066 C.3     1  WATER21111   -0.0017
     17 ****       -4.3962    1.9041   -0.4363 C.3     1  WATER21111   -0.0516
     18 ****       -4.3009    0.4070   -0.7822 C.2     1  WATER21111    0.2324
     19 ****       -3.0662   -0.6714    1.0857 C.3     1  WATER21111    0.0545
     20 ****        1.7662   -1.0322    0.9619 C.3     1  WATER21111    0.0484
     21 ****       -5.1884   -0.2511   -1.2978 O.2     1  WATER21111   -0.2716
     22 ****        2.0154   -0.8463   -2.5277 H       1  WATER21111    0.0099
     23 ****        1.9685   -2.2507   -1.4385 H       1  WATER21111    0.0125
     24 ****        4.2372   -1.8565   -0.6509 H       1  WATER21111    0.0313
     25 ****        4.2090   -1.7673   -2.4263 H       1  WATER21111    0.0348
     26 ****        1.5072   -2.1081    0.8927 H       1  WATER21111   -0.0022
     27 ****       -0.6218    0.7418    1.0666 H       1  WATER21111    0.0228
     28 ****        0.1995    0.3499   -1.8921 H       1  WATER21111    0.0103
     29 ****       -0.3202   -1.9684   -1.8275 H       1  WATER21111    0.0072
     30 ****       -0.6167   -1.9942   -0.0782 H       1  WATER21111    0.0079
     31 ****       -2.3692   -0.8973   -2.3417 H       1  WATER21111    0.0111
     32 ****       -2.7313   -2.1620   -1.1575 H       1  WATER21111    0.0180
     33 ****       -1.9562    1.4069   -1.6127 H       1  WATER21111    0.0113
     34 ****       -2.7107    3.3156   -0.4645 H       1  WATER21111    0.0160
     35 ****       -2.9170    2.4863    1.0919 H       1  WATER21111    0.0168
     36 ****       -5.1380    2.0699    0.3726 H       1  WATER21111    0.0364
     37 ****       -4.7456    2.4869   -1.3147 H       1  WATER21111    0.0367
     38 ****       -3.7361   -1.5563    1.0845 H       1  WATER21111    0.0062
     39 ****       -2.1094   -0.9933    1.5402 H       1  WATER21111    0.0007
     40 ****       -3.5103    0.0722    1.7781 H       1  WATER21111   -0.0047
     41 ****        1.1077   -0.5934    1.7360 H       1  WATER21111    0.0012
     42 ****        2.1837    3.1756   -0.0811 H       1  WATER21111    0.0256
     43 ****        2.8017   -0.9791    1.3565 H       1  WATER21111   -0.0018
     44 ****        4.1613    2.1710   -0.6720 H       1  WATER21111    0.0764
     45 ****        5.6224    0.3748   -1.8325 O.2     1  WATER21111   -0.2860
     46 ****       -0.2672    3.1241    0.6155 H       1  WATER21111    0.0136
     47 ****        0.1536    2.8136   -1.0828 H       1  WATER21111    0.0094
     48 C49         2.1242    2.3498    2.9443 C.2     1  WATER21111   -0.1068
     49 ****        2.2998    2.4078    3.9790 H       1  WATER21111    0.1600
@<TRIPOS>BOND
     1     1    23    1
     2     1    11    1
     3    11    20    1
     4    20    43    1
     5    20    41    1
     6    20    26    1
     7    10    11    1
     8    10    28    1
     9     9    10    1
    10     9    27    1
    11     9    15    1
    12    15    33    1
    13    14    15    1
    14    14    19    1
    15    19    40    1
    16    19    39    1
    17    19    38    1
    18    13    14    1
    19    13    31    1
    20    13    32    1
    21    12    13    1
    22    12    29    1
    23    12    30    1
    24    10    12    1
    25    14    18    1
    26    17    18    1
    27    17    36    1
    28    16    17    1
    29    16    35    1
    30    15    16    1
    31    16    34    1
    32    17    37    1
    33    18    21    2
    34     8     9    1
    35     8    46    1
    36     7     8    1
    37     7    42    1
    38     6     7    1
    39     6    11    1
    40     5     6    2
    41     5    44    1
    42     3     5    2
    43     3    45    2
    44     2     3    1
    45     2    25    1
    46     2    24    1
    47     1     2    1
    48     7     4    1
    49     4    48    2
    50    48    49    1
    51     8    47    1
    52     1    22    1
