@<TRIPOS>MOLECULE
51
 49 52 0 0 0
SMALL
GASTEIGER

@<TRIPOS>ATOM
      1 ****        2.3169   -1.2193   -1.4799 C.3     1  WATER21111    0.0026
      2 ****        3.8496   -1.2488   -1.5075 C.3     1  WATER21111   -0.0432
      3 C3          4.4450    0.1559   -1.5292 C.1     1  WATER21111    0.2454
      4 ****        1.7574    1.9739    1.5095 H       1  WATER21111    0.0134
      5 C5          3.6580    1.2397   -0.8383 C.1     1  WATER21111   -0.0943
      6 C5          2.4004    1.0618   -0.3263 C.2     1  WATER21111   -0.0017
      7 C6          1.6829    2.1787    0.4143 C.3     1  WATER21111    0.0253
      8 C7          0.2105    2.3609    0.0162 C.3     1  WATER21111   -0.0034
      9 ****       -0.5935    1.0425    0.0266 C.3     1  WATER21111   -0.0160
     10 ****        0.1409   -0.0617   -0.8162 C.3     1  WATER21111   -0.0102
     11 ****        1.6584   -0.2970   -0.3934 C.3     1  WATER21111   -0.0360
     12 ****       -0.7092   -1.3638   -0.9347 C.3     1  WATER21111   -0.0038
     13 ****       -2.2126   -1.1829   -1.2552 C.3     1  WATER21111    0.0221
     14 ****       -2.8994   -0.1096   -0.3715 C.3     1  WATER21111   -0.1178
     15 ****       -2.0405    1.2051   -0.5117 C.3     1  WATER21111   -0.0266
     16 ****       -2.9739    2.3480   -0.0370 C.3     1  WATER21111   -0.0012
     17 ****       -4.3869    1.9152   -0.4934 C.3     1  WATER21111   -0.0516
     18 ****       -4.2880    0.4180   -0.8396 C.2     1  WATER21111    0.2325
     19 ****       -3.1159   -0.6535    1.0703 C.3     1  WATER21111    0.0545
     20 ****        1.8024   -0.9800    1.0021 C.3     1  WATER21111    0.0472
     21 ****       -5.1616   -0.2347   -1.3849 O.2     1  WATER21111   -0.2719
     22 ****        1.9739   -0.9074   -2.4942 H       1  WATER21111    0.0114
     23 ****        1.9708   -2.2698   -1.3517 H       1  WATER21111    0.0137
     24 ****        4.2600   -1.7913   -0.6255 H       1  WATER21111    0.0322
     25 ****        4.1789   -1.8279   -2.4001 H       1  WATER21111    0.0368
     26 ****        1.5134   -2.0499    0.9750 H       1  WATER21111   -0.0003
     27 ****       -0.6535    0.7182    1.0927 H       1  WATER21111    0.0186
     28 ****        0.2002    0.3460   -1.8600 H       1  WATER21111    0.0112
     29 ****       -0.2959   -1.9962   -1.7536 H       1  WATER21111    0.0066
     30 ****       -0.6197   -1.9741   -0.0093 H       1  WATER21111    0.0075
     31 ****       -2.3277   -0.9218   -2.3319 H       1  WATER21111    0.0114
     32 ****       -2.7149   -2.1690   -1.1367 H       1  WATER21111    0.0176
     33 ****       -1.9241    1.4007   -1.6136 H       1  WATER21111    0.0116
     34 ****       -2.6925    3.3184   -0.4967 H       1  WATER21111    0.0168
     35 ****       -2.9374    2.5035    1.0611 H       1  WATER21111    0.0164
     36 ****       -5.1423    2.0803    0.3030 H       1  WATER21111    0.0361
     37 ****       -4.7206    2.5003   -1.3763 H       1  WATER21111    0.0368
     38 ****       -3.8086   -1.5208    1.0583 H       1  WATER21111    0.0059
     39 ****       -2.1781   -0.9973    1.5479 H       1  WATER21111    0.0001
     40 ****       -3.5559    0.1047    1.7491 H       1  WATER21111   -0.0046
     41 ****        1.1793   -0.4985    1.7804 H       1  WATER21111    0.0005
     42 ****        2.1744    3.1667    0.2731 H       1  WATER21111    0.0409
     43 ****        2.8498   -0.9415    1.3662 H       1  WATER21111   -0.0030
     44 N44         4.2820    2.5330   -0.7080 N.2     1  WATER21111   -0.2328
     45 ****        5.5214    0.3817   -2.0757 O.2     1  WATER21111   -0.2977
     46 ****       -0.2472    3.0835    0.7297 H       1  WATER21111    0.0091
     47 ****        0.1619    2.8445   -0.9859 H       1  WATER21111    0.0118
     48 ****        4.4894    2.9040   -1.6249 H       1  WATER21111    0.1108
     49 ****        5.1727    2.4361   -0.2413 H       1  WATER21111    0.1092
@<TRIPOS>BOND
     1     1    23    1
     2     1    11    1
     3    11    20    1
     4    20    43    1
     5    20    26    1
     6    20    41    1
     7    10    11    1
     8     9    10    1
     9     9    15    1
    10    15    16    1
    11    16    34    1
    12    16    35    1
    13    16    17    1
    14    17    18    1
    15    18    21    2
    16    14    18    1
    17    14    15    1
    18    14    19    1
    19    19    38    1
    20    19    39    1
    21    19    40    1
    22    13    14    1
    23    13    31    1
    24    13    32    1
    25    12    13    1
    26    12    29    1
    27    12    30    1
    28    10    12    1
    29    17    36    1
    30    17    37    1
    31    15    33    1
    32     8     9    1
    33     8    47    1
    34     7     8    1
    35     7    42    1
    36     7     4    1
    37     6     7    1
    38     6    11    1
    39     5     6    2
    40     3     5    2
    41     3    45    2
    42     2     3    1
    43     2    25    1
    44     2    24    1
    45     1     2    1
    46     5    44    2
    47    44    48    1
    48    44    49    1
    49     8    46    1
    50     9    27    1
    51    10    28    1
    52     1    22    1
