@<TRIPOS>MOLECULE
52
 47 50 0 0 0
SMALL
GASTEIGER

@<TRIPOS>ATOM
      1 C1          2.3776   -1.3170   -1.1519 C.2     1  WATER21111   -0.0291
      2 C2          3.5379   -1.1111   -1.8012 C.1     1  WATER21111   -0.1383
      3 C3          4.2773    0.1742   -1.6976 C.1     1  WATER21111    0.2793
      4 ****        1.7682    1.9567    1.6052 H       1  WATER21111    0.0117
      5 C5          3.5906    1.2568   -0.9042 C.1     1  WATER21111   -0.0839
      6 C5          2.4039    1.0596   -0.2521 C.2     1  WATER21111   -0.0154
      7 C6          1.7046    2.1703    0.5120 C.3     1  WATER21111    0.0274
      8 C7          0.2365    2.3541    0.0915 C.3     1  WATER21111   -0.0030
      9 ****       -0.5683    1.0341    0.0603 C.3     1  WATER21111   -0.0157
     10 ****        0.1925   -0.0793   -0.7497 C.3     1  WATER21111   -0.0063
     11 ****        1.6804   -0.3113   -0.2371 C.3     1  WATER21111   -0.0104
     12 ****       -0.6587   -1.3743   -0.9140 C.3     1  WATER21111   -0.0042
     13 ****       -2.1505   -1.1857   -1.2798 C.3     1  WATER21111    0.0224
     14 ****       -2.8603   -0.1114   -0.4163 C.3     1  WATER21111   -0.1183
     15 ****       -1.9938    1.2010   -0.5302 C.3     1  WATER21111   -0.0267
     16 ****       -2.9399    2.3473   -0.0895 C.3     1  WATER21111   -0.0012
     17 ****       -4.3383    1.9171   -0.5903 C.3     1  WATER21111   -0.0515
     18 ****       -4.2331    0.4183   -0.9269 C.2     1  WATER21111    0.2326
     19 ****       -3.1203   -0.6550    1.0184 C.3     1  WATER21111    0.0544
     20 ****        1.7883   -0.9210    1.1971 C.3     1  WATER21111    0.0507
     21 ****       -5.0918   -0.2351   -1.4944 O.2     1  WATER21111   -0.2714
     22 ****        1.9040   -2.2991   -1.2408 H       1  WATER21111    0.0612
     23 ****        3.9793   -1.8936   -2.4226 H       1  WATER21111    0.0828
     24 ****        1.4272   -1.9687    1.2279 H       1  WATER21111   -0.0001
     25 ****       -0.6709    0.7077    1.1228 H       1  WATER21111    0.0179
     26 ****        0.3200    0.3169   -1.7916 H       1  WATER21111    0.0142
     27 ****       -0.2210   -1.9912   -1.7325 H       1  WATER21111    0.0061
     28 ****       -0.5983   -1.9999    0.0035 H       1  WATER21111    0.0077
     29 ****       -2.2309   -0.9217   -2.3590 H       1  WATER21111    0.0120
     30 ****       -2.6606   -2.1700   -1.1797 H       1  WATER21111    0.0181
     31 ****       -1.8377    1.3941   -1.6274 H       1  WATER21111    0.0123
     32 ****       -2.6421    3.3160   -0.5423 H       1  WATER21111    0.0172
     33 ****       -2.9392    2.5055    1.0090 H       1  WATER21111    0.0165
     34 ****       -5.1191    2.0880    0.1803 H       1  WATER21111    0.0363
     35 ****       -4.6405    2.4998   -1.4861 H       1  WATER21111    0.0371
     36 ****       -3.8116   -1.5227    0.9859 H       1  WATER21111    0.0063
     37 ****       -2.1972   -0.9988    1.5239 H       1  WATER21111   -0.0003
     38 ****       -3.5807    0.1035    1.6833 H       1  WATER21111   -0.0041
     39 ****        1.2069   -0.3604    1.9535 H       1  WATER21111    0.0025
     40 ****        2.2058    3.1556    0.3895 H       1  WATER21111    0.0412
     41 ****        2.8444   -0.9317    1.5382 H       1  WATER21111    0.0016
     42 N44         4.2113    2.5557   -0.8507 N.2     1  WATER21111   -0.2319
     43 ****        5.3764    0.3384   -2.2230 O.2     1  WATER21111   -0.3014
     44 ****       -0.2377    3.0606    0.8103 H       1  WATER21111    0.0093
     45 ****        0.2055    2.8569   -0.9017 H       1  WATER21111    0.0130
     46 ****        5.1054    2.4808   -0.3852 H       1  WATER21111    0.1107
     47 ****        4.4136    2.8774   -1.7866 H       1  WATER21111    0.1108
@<TRIPOS>BOND
     1     1    22    1
     2     1    11    1
     3    11    20    1
     4    20    41    1
     5    20    39    1
     6    20    24    1
     7    10    11    1
     8    10    12    1
     9    12    27    1
    10    12    28    1
    11    12    13    1
    12    13    29    1
    13    13    30    1
    14    13    14    1
    15    14    15    1
    16    15    16    1
    17    16    17    1
    18    17    34    1
    19    17    35    1
    20    17    18    1
    21    18    21    2
    22    14    18    1
    23    16    32    1
    24    16    33    1
    25    15    31    1
    26     9    15    1
    27     9    10    1
    28     9    25    1
    29     8     9    1
    30     7     8    1
    31     7    40    1
    32     6     7    1
    33     6    11    1
    34     5     6    2
    35     3     5    2
    36     3    43    2
    37     2     3    2
    38     2    23    1
    39     1     2    2
    40     5    42    2
    41    42    46    1
    42    42    47    1
    43     7     4    1
    44     8    45    1
    45     8    44    1
    46    14    19    1
    47    19    38    1
    48    19    36    1
    49    19    37    1
    50    10    26    1
