@<TRIPOS>MOLECULE
54
 45 48 0 0 0
SMALL
GASTEIGER

@<TRIPOS>ATOM
      1 C1          2.3949   -1.3199   -1.1059 C.2     1  WATER21111   -0.0282
      2 C2          3.5635   -1.1263   -1.7457 C.1     1  WATER21111   -0.1378
      3 C3          4.3000    0.1646   -1.6655 C.1     1  WATER21111    0.2791
      4 C5          3.5546    1.2946   -1.0035 C.1     1  WATER21111   -0.0811
      5 C5          2.3569    1.1085   -0.3643 C.1     1  WATER21111    0.0164
      6 C6          1.5872    2.2318    0.2105 C.1     1  WATER21111   -0.0420
      7 C7          0.2512    2.1917    0.4013 C.2     1  WATER21111   -0.0837
      8 ****       -0.5852    0.9574    0.1727 C.3     1  WATER21111    0.0184
      9 ****        0.1838   -0.0998   -0.7054 C.3     1  WATER21111   -0.0110
     10 ****        1.6890   -0.2852   -0.2349 C.3     1  WATER21111   -0.0114
     11 ****       -0.6584   -1.3923   -0.9025 C.3     1  WATER21111   -0.0027
     12 ****       -2.1352   -1.1698   -1.3164 C.3     1  WATER21111    0.0219
     13 ****       -2.8660   -0.1014   -0.4597 C.3     1  WATER21111   -0.1189
     14 ****       -1.9717    1.1996   -0.4763 C.3     1  WATER21111   -0.0248
     15 ****       -2.9151    2.3461   -0.0352 C.3     1  WATER21111   -0.0008
     16 ****       -4.2932    1.9643   -0.6251 C.3     1  WATER21111   -0.0514
     17 ****       -4.1976    0.4790   -1.0213 C.2     1  WATER21111    0.2324
     18 ****       -3.2161   -0.6891    0.9388 C.3     1  WATER21111    0.0535
     19 ****        1.8563   -0.7881    1.2331 C.3     1  WATER21111    0.0515
     20 ****       -5.0359   -0.1306   -1.6631 O.2     1  WATER21111   -0.2710
     21 ****        1.9249   -2.3055   -1.1663 H       1  WATER21111    0.0619
     22 ****        4.0173   -1.9235   -2.3385 H       1  WATER21111    0.0828
     23 ****        1.3701   -1.7722    1.3858 H       1  WATER21111   -0.0001
     24 ****       -0.7474    0.5366    1.1973 H       1  WATER21111    0.0219
     25 ****        0.2772    0.3384   -1.7347 H       1  WATER21111    0.0153
     26 ****       -0.2021   -2.0079   -1.7112 H       1  WATER21111    0.0070
     27 ****       -0.6284   -2.0232    0.0128 H       1  WATER21111    0.0087
     28 ****       -2.1702   -0.8821   -2.3919 H       1  WATER21111    0.0123
     29 ****       -2.6641   -2.1472   -1.2558 H       1  WATER21111    0.0181
     30 ****       -1.7553    1.4403   -1.5534 H       1  WATER21111    0.0142
     31 ****       -2.5741    3.3249   -0.4324 H       1  WATER21111    0.0178
     32 ****       -2.9680    2.4603    1.0673 H       1  WATER21111    0.0164
     33 ****       -5.1097    2.1173    0.1113 H       1  WATER21111    0.0364
     34 ****       -4.5385    2.5902   -1.5089 H       1  WATER21111    0.0374
     35 ****       -3.9447   -1.5204    0.8391 H       1  WATER21111    0.0064
     36 ****       -2.3342   -1.0986    1.4684 H       1  WATER21111    0.0000
     37 ****       -3.6704    0.0625    1.6153 H       1  WATER21111   -0.0039
     38 ****        1.4296   -0.0914    1.9801 H       1  WATER21111    0.0039
     39 ****        2.1352    3.1386    0.4791 H       1  WATER21111    0.0822
     40 ****        2.9302   -0.9085    1.4856 H       1  WATER21111    0.0018
     41 N44         4.1089    2.6215   -1.0638 N.2     1  WATER21111   -0.2302
     42 ****        5.4358    0.2971   -2.1161 O.2     1  WATER21111   -0.3004
     43 ****       -0.2633    3.0641    0.8090 H       1  WATER21111    0.0606
     44 ****        4.1640    2.9184   -2.0283 H       1  WATER21111    0.1084
     45 ****        5.0605    2.6107   -0.7245 H       1  WATER21111    0.1128
@<TRIPOS>BOND
     1     1    10    1
     2     9    10    1
     3     9    11    1
     4    11    12    1
     5    12    13    1
     6    13    17    1
     7    16    17    1
     8    16    34    1
     9    16    33    1
    10    15    16    1
    11    15    31    1
    12    14    15    1
    13    13    14    1
    14    14    30    1
    15     8    14    1
    16     8     9    1
    17     8    24    1
    18     7     8    1
    19     7    43    1
    20     6     7    2
    21     5     6    2
    22     5    10    1
    23     4     5    2
    24     3     4    2
    25     2     3    2
    26     2    22    1
    27     1     2    2
    28     3    42    2
    29     4    41    2
    30    41    44    1
    31    41    45    1
    32     6    39    1
    33    15    32    1
    34    17    20    2
    35    13    18    1
    36    18    35    1
    37    18    36    1
    38    18    37    1
    39    12    29    1
    40    12    28    1
    41    11    26    1
    42    11    27    1
    43     9    25    1
    44    10    19    1
    45    19    38    1
    46    19    40    1
    47    19    23    1
    48     1    21    1
