@<TRIPOS>MOLECULE
55
 46 49 0 0 0
SMALL
GASTEIGER

@<TRIPOS>ATOM
      1 C1          2.4021   -1.3246   -1.1306 C.2     1  WATER21111   -0.0354
      2 C2          3.5365   -1.0786   -1.8148 C.1     1  WATER21111   -0.1363
      3 C3          4.2196    0.2463   -1.7521 C.1     1  WATER21111    0.2865
      4 ****        0.2684    2.8437   -0.8913 H       1  WATER21111    0.0137
      5 C5          3.5216    1.2755   -0.9241 C.1     1  WATER21111   -0.1228
      6 C5          2.3834    1.0317   -0.2263 C.1     1  WATER21111   -0.0132
      7 C6          1.6990    2.1147    0.5314 C.1     1  WATER21111   -0.1239
      8 C7          0.2636    2.3443    0.1056 C.3     1  WATER21111    0.0519
      9 ****       -0.5550    1.0270    0.0659 C.3     1  WATER21111   -0.0146
     10 ****        0.1955   -0.1039   -0.7318 C.3     1  WATER21111   -0.0055
     11 ****        1.6778   -0.3417   -0.2110 C.3     1  WATER21111   -0.0018
     12 ****       -0.6635   -1.3935   -0.8872 C.3     1  WATER21111   -0.0039
     13 ****       -2.1504   -1.1923   -1.2653 C.3     1  WATER21111    0.0220
     14 ****       -2.8537   -0.1010   -0.4171 C.3     1  WATER21111   -0.1176
     15 ****       -1.9741    1.2028   -0.5375 C.3     1  WATER21111   -0.0278
     16 ****       -2.9137    2.3615   -0.1158 C.3     1  WATER21111   -0.0016
     17 ****       -4.3118    1.9391   -0.6242 C.3     1  WATER21111   -0.0514
     18 ****       -4.2183    0.4355   -0.9419 C.2     1  WATER21111    0.2323
     19 ****       -3.1284   -0.6277    1.0214 C.3     1  WATER21111    0.0542
     20 ****        1.7811   -0.9411    1.2252 C.3     1  WATER21111    0.0527
     21 ****       -5.0805   -0.2168   -1.5055 O.2     1  WATER21111   -0.2710
     22 ****        3.3304    2.6694    1.8202 H       1  WATER21111    0.0460
     23 ****        1.9652   -2.3258   -1.1964 H       1  WATER21111    0.0588
     24 ****        1.8010    3.6183    2.0655 H       1  WATER21111    0.0444
     25 ****        3.9949   -1.8505   -2.4363 H       1  WATER21111    0.0811
     26 ****        1.3805   -1.9735    1.2729 H       1  WATER21111   -0.0008
     27 ****       -0.6679    0.7086    1.1298 H       1  WATER21111    0.0190
     28 ****        0.3281    0.2815   -1.7773 H       1  WATER21111    0.0137
     29 ****       -0.2224   -2.0233   -1.6941 H       1  WATER21111    0.0073
     30 ****       -0.6153   -2.0093    0.0376 H       1  WATER21111    0.0079
     31 ****       -2.2207   -0.9375   -2.3473 H       1  WATER21111    0.0120
     32 ****       -2.6730   -2.1693   -1.1586 H       1  WATER21111    0.0183
     33 ****       -1.8067    1.3838   -1.6350 H       1  WATER21111    0.0126
     34 ****       -2.6029    3.3230   -0.5751 H       1  WATER21111    0.0164
     35 ****       -2.9217    2.5300    0.9811 H       1  WATER21111    0.0161
     36 ****       -5.0979    2.1272    0.1368 H       1  WATER21111    0.0364
     37 ****       -4.5998    2.5134   -1.5300 H       1  WATER21111    0.0371
     38 ****       -3.8338   -1.4842    0.9938 H       1  WATER21111    0.0065
     39 ****       -2.2133   -0.9822    1.5340 H       1  WATER21111    0.0002
     40 ****       -3.5790    0.1439    1.6779 H       1  WATER21111   -0.0045
     41 ****        1.2344   -0.3448    1.9809 H       1  WATER21111    0.0012
     42 C39         2.2997    2.8278    1.5058 C.2     1  WATER21111   -0.0117
     43 ****        2.8406   -0.9886    1.5529 H       1  WATER21111    0.0005
     44 H44         3.9795    2.2685   -0.9213 H       1  WATER21111    0.0783
     45 ****        5.2747    0.4769   -2.3368 O.2     1  WATER21111   -0.2904
     46 ****       -0.2326    3.0573    0.8019 H       1  WATER21111    0.0072
@<TRIPOS>BOND
     1     1     2    2
     2     2    25    1
     3     2     3    2
     4     3     5    2
     5     5    44    1
     6     5     6    2
     7     6     7    2
     8     7     8    1
     9     8     4    1
    10     8     9    1
    11     9    27    1
    12     9    15    1
    13    15    33    1
    14    15    16    1
    15    16    34    1
    16    16    35    1
    17    16    17    1
    18    17    36    1
    19    17    37    1
    20    17    18    1
    21    18    21    2
    22    14    18    1
    23    13    14    1
    24    13    31    1
    25    12    13    1
    26    12    30    1
    27    12    29    1
    28    10    12    1
    29    10    28    1
    30     9    10    1
    31    10    11    1
    32    11    20    1
    33    20    26    1
    34    20    43    1
    35    20    41    1
    36     6    11    1
    37     1    11    1
    38    13    32    1
    39    14    15    1
    40    14    19    1
    41    19    38    1
    42    19    39    1
    43    19    40    1
    44     8    46    1
    45     7    42    2
    46    42    24    1
    47    42    22    1
    48     3    45    2
    49     1    23    1
