@<TRIPOS>MOLECULE
57
 46 50 0 0 0
SMALL
GASTEIGER

@<TRIPOS>ATOM
      1 C1          2.4411   -1.2731   -1.3117 C.2     1  WATER21111   -0.0169
      2 C2          3.7387   -1.0706   -1.6414 C.1     1  WATER21111   -0.1438
      3 C3          4.5225    0.1483   -1.2504 C.1     1  WATER21111    0.3364
      4 ****       -0.1545    3.0759   -0.7320 H       1  WATER21111    0.0020
      5 C5          3.6493    1.2020   -0.6882 C.ar    1  WATER21111   -0.1044
      6 C5          2.3017    0.9765   -0.3613 C.ar    1  WATER21111   -0.0905
      7 C6          1.6855    2.2416   -0.0958 C.ar    1  WATER21111   -0.1619
      8 C7          0.2093    2.3853    0.0648 C.3     1  WATER21111    0.0866
      9 ****       -0.5653    1.0296    0.0099 C.3     1  WATER21111   -0.0113
     10 ****        0.1385   -0.0867   -0.8647 C.3     1  WATER21111   -0.0012
     11 ****        1.6210   -0.3718   -0.3788 C.3     1  WATER21111    0.0241
     12 ****       -0.7306   -1.3625   -1.0586 C.3     1  WATER21111   -0.0053
     13 ****       -2.2366   -1.1476   -1.3341 C.3     1  WATER21111    0.0225
     14 ****       -2.8849   -0.1122   -0.3794 C.3     1  WATER21111   -0.1172
     15 ****       -2.0253    1.2059   -0.4895 C.3     1  WATER21111   -0.0282
     16 ****       -2.9463    2.3284    0.0565 C.3     1  WATER21111   -0.0020
     17 ****       -4.3724    1.9163   -0.3754 C.3     1  WATER21111   -0.0519
     18 ****       -4.2876    0.4333   -0.7788 C.2     1  WATER21111    0.2326
     19 ****       -3.0533   -0.7174    1.0443 C.3     1  WATER21111    0.0545
     20 ****        1.7164   -1.0238    1.0371 C.3     1  WATER21111    0.0538
     21 ****       -5.1816   -0.1988   -1.3157 O.2     1  WATER21111   -0.2730
     22 ****        1.9461   -2.1779   -1.6725 H       1  WATER21111    0.0588
     23 ****        2.6699    4.2803   -0.0245 H       1  WATER21111    0.0999
     24 ****        4.2681   -1.8044   -2.2539 H       1  WATER21111    0.0773
     25 ****        1.2774   -2.0412    1.0532 H       1  WATER21111   -0.0044
     26 ****       -0.6047    0.6734    1.0668 H       1  WATER21111    0.0159
     27 ****        0.2496    0.3438   -1.8942 H       1  WATER21111    0.0144
     28 ****       -0.3294   -1.9315   -1.9294 H       1  WATER21111    0.0051
     29 ****       -0.6311   -2.0436   -0.1853 H       1  WATER21111    0.0071
     30 ****       -2.3739   -0.8292   -2.3925 H       1  WATER21111    0.0108
     31 ****       -2.7515   -2.1313   -1.2549 H       1  WATER21111    0.0171
     32 ****       -1.9337    1.4433   -1.5850 H       1  WATER21111    0.0121
     33 ****       -2.6806    3.3181   -0.3696 H       1  WATER21111    0.0154
     34 ****       -2.8787    2.4385    1.1588 H       1  WATER21111    0.0160
     35 ****       -5.1051    2.0543    0.4470 H       1  WATER21111    0.0356
     36 ****       -4.7284    2.5341   -1.2267 H       1  WATER21111    0.0361
     37 ****       -3.7348   -1.5931    1.0167 H       1  WATER21111    0.0054
     38 ****       -2.0982   -1.0674    1.4812 H       1  WATER21111    0.0010
     39 ****       -3.4840    0.0068    1.7651 H       1  WATER21111   -0.0051
     40 ****        1.2044   -0.4255    1.8151 H       1  WATER21111    0.0018
     41 C39         2.7012    3.2088   -0.1794 C.ar    1  WATER21111    0.0291
     42 ****        2.7739   -1.1232    1.3586 H       1  WATER21111   -0.0006
     43 N44         3.8863    2.5659   -0.5295 N.ar    1  WATER21111   -0.1683
     44 ****        5.7343    0.2618   -1.4049 O.2     1  WATER21111   -0.3071
     45 ****       -0.0199    2.8839    1.0354 H       1  WATER21111    0.0038
     46 ****        4.7628    3.0163   -0.6727 H       1  WATER21111    0.2179
@<TRIPOS>BOND
     1     1     2    2
     2     2    24    1
     3     2     3    2
     4     3    44    2
     5     3     5    1
     6     5    43   ar
     7    43    46    1
     8    43    41   ar
     9    41    23    1
    10     7    41   ar
    11     7     8    1
    12     8     4    1
    13     8    45    1
    14     8     9    1
    15     9    15    1
    16    14    15    1
    17    13    14    1
    18    13    30    1
    19    13    31    1
    20    12    13    1
    21    12    28    1
    22    12    29    1
    23    10    12    1
    24    10    27    1
    25    10    11    1
    26     1    11    1
    27    11    20    1
    28    20    25    1
    29    20    42    1
    30    20    40    1
    31     6    11    1
    32     5     6   ar
    33     6     7   ar
    34     9    10    1
    35    14    18    1
    36    18    21    2
    37    17    18    1
    38    17    36    1
    39    17    35    1
    40    16    17    1
    41    16    33    1
    42    16    34    1
    43    15    16    1
    44    14    19    1
    45    19    39    1
    46    19    37    1
    47    19    38    1
    48    15    32    1
    49     9    26    1
    50     1    22    1
