@<TRIPOS>MOLECULE
59
 60 64 0 0 0
SMALL
GASTEIGER

@<TRIPOS>ATOM
      1 ****        2.3381   -1.2202   -1.5137 C.3     1  WATER21111    0.0057
      2 ****        3.8756   -1.2152   -1.5306 C.3     1  WATER21111   -0.0467
      3 C3          4.4738    0.1880   -1.4467 C.1     1  WATER21111    0.2553
      4 ****        1.6346    1.9154    1.5160 H       1  WATER21111    0.0170
      5 C5          3.6458    1.2143   -0.7509 C.1     1  WATER21111   -0.1262
      6 C5          2.3848    1.0144   -0.2930 C.2     1  WATER21111   -0.0476
      7 C6          1.6747    2.1454    0.4243 C.3     1  WATER21111    0.0329
      8 C7          0.2443    2.4072   -0.0948 C.3     1  WATER21111   -0.1087
      9 ****       -0.5780    1.0824   -0.0646 C.3     1  WATER21111    0.0122
     10 ****        0.1373   -0.0683   -0.8672 C.3     1  WATER21111   -0.0123
     11 ****        1.6423   -0.3319   -0.4161 C.3     1  WATER21111   -0.0273
     12 ****       -0.7255   -1.3645   -0.9610 C.3     1  WATER21111   -0.0034
     13 ****       -2.2368   -1.1854   -1.2339 C.3     1  WATER21111    0.0215
     14 ****       -2.8877   -0.1019   -0.3369 C.3     1  WATER21111   -0.1182
     15 ****       -2.0481    1.2174   -0.5490 C.3     1  WATER21111   -0.0287
     16 ****       -2.9754    2.3589   -0.0565 C.3     1  WATER21111   -0.0007
     17 ****       -4.4027    1.9030   -0.4383 C.3     1  WATER21111   -0.0509
     18 ****       -4.3040    0.3989   -0.7483 C.2     1  WATER21111    0.2335
     19 ****       -3.0295   -0.6165    1.1247 C.3     1  WATER21111    0.0540
     20 ****        1.7566   -1.0525    0.9630 C.3     1  WATER21111    0.0467
     21 ****       -5.1966   -0.2786   -1.2286 O.2     1  WATER21111   -0.2720
     22 ****        1.9985   -0.8946   -2.5244 H       1  WATER21111    0.0134
     23 ****        2.0113   -2.2791   -1.4099 H       1  WATER21111    0.0120
     24 ****        4.2807   -1.8153   -0.6834 H       1  WATER21111    0.0290
     25 ****        4.2175   -1.7284   -2.4580 H       1  WATER21111    0.0352
     26 ****        1.4859   -2.1255    0.9001 H       1  WATER21111    0.0004
     27 ****       -0.6119    0.8000    1.0163 H       1  WATER21111    0.0152
     28 ****        0.2124    0.3032   -1.9220 H       1  WATER21111    0.0238
     29 ****       -0.3322   -1.9941   -1.7924 H       1  WATER21111    0.0081
     30 ****       -0.6130   -1.9795   -0.0413 H       1  WATER21111    0.0057
     31 ****       -2.3890   -0.9341   -2.3083 H       1  WATER21111    0.0138
     32 ****       -2.7374   -2.1690   -1.0887 H       1  WATER21111    0.0175
     33 ****       -1.9848    1.3807   -1.6590 H       1  WATER21111    0.0263
     34 ****       -2.7333    3.3237   -0.5471 H       1  WATER21111    0.0203
     35 ****       -2.8915    2.5362    1.0361 H       1  WATER21111    0.0115
     36 ****       -5.1239    2.0843    0.3860 H       1  WATER21111    0.0347
     37 ****       -4.7797    2.4615   -1.3211 H       1  WATER21111    0.0386
     38 ****       -3.6996   -1.5004    1.1627 H       1  WATER21111    0.0064
     39 ****       -2.0650   -0.9263    1.5712 H       1  WATER21111   -0.0009
     40 ****       -3.4601    0.1472    1.8037 H       1  WATER21111   -0.0054
     41 ****        1.1050   -0.5997    1.7358 H       1  WATER21111   -0.0029
     42 ****        2.2636    3.0883    0.3640 H       1  WATER21111    0.0149
     43 ****        2.7933   -1.0097    1.3567 H       1  WATER21111   -0.0034
     44 ****        4.1364    2.1847   -0.6242 H       1  WATER21111    0.0741
     45 ****        5.5793    0.4517   -1.9101 O.2     1  WATER21111   -0.2878
     46 ****       -0.2299    3.1118    0.6295 H       1  WATER21111    0.0227
     47 S47         0.2153    3.1661   -1.6752 S.3     1  WATER21111    0.1231
     48 ****        0.7854    4.7560   -1.5532 C.ar    2  <2>222     -0.2454
     49 ****        1.9891    5.1056   -2.2067 C.ar    2  <2>222      0.0220
     50 ****        2.4538    6.4290   -2.2156 C.ar    2  <2>222     -0.1105
     51 ****        1.7147    7.4510   -1.5649 C.ar    2  <2>222      0.0745
     52 ****        0.5031    7.1062   -0.9111 C.ar    2  <2>222     -0.1104
     53 ****        0.0496    5.7790   -0.9161 C.ar    2  <2>222      0.0099
     54 ****        2.5738    4.3403   -2.7214 H       2  <2>222      0.0704
     55 ****        3.3861    6.6550   -2.7352 H       2  <2>222      0.0690
     56 N56         2.1157    8.8074   -1.6664 N.pl3   2  <2>222     -0.2339
     57 ****       -0.0970    7.8645   -0.4062 H       2  <2>222      0.0667
     58 ****       -0.8947    5.5505   -0.4185 H       2  <2>222      0.0607
     59 ****        3.1136    8.9076   -1.7504 H       2  <2>222      0.1228
     60 ****        1.8300    9.3524   -0.8698 H       2  <2>222      0.1219
@<TRIPOS>BOND
     1     1    22    1
     2     1     2    1
     3     2     3    1
     4     3    45    2
     5     3     5    2
     6     5    44    1
     7     5     6    2
     8     6     7    1
     9     7    42    1
    10     7     4    1
    11     7     8    1
    12     8    47    1
    13    47    48    1
    14    53    48   ar
    15    52    53   ar
    16    52    57    1
    17    51    52   ar
    18    51    56    1
    19    56    60    1
    20    56    59    1
    21    50    51   ar
    22    50    55    1
    23    49    50   ar
    24    49    54    1
    25    48    49   ar
    26    53    58    1
    27     8    46    1
    28     8     9    1
    29     9    15    1
    30    15    33    1
    31    15    16    1
    32    16    17    1
    33    17    36    1
    34    17    37    1
    35    17    18    1
    36    18    21    2
    37    14    18    1
    38    14    15    1
    39    14    19    1
    40    19    38    1
    41    19    40    1
    42    19    39    1
    43    13    14    1
    44    12    13    1
    45    12    30    1
    46    12    29    1
    47    10    12    1
    48    10    28    1
    49    10    11    1
    50    11    20    1
    51    20    43    1
    52    20    41    1
    53    20    26    1
    54     1    11    1
    55     6    11    1
    56     9    10    1
    57    13    32    1
    58    13    31    1
    59    16    34    1
    60    16    35    1
    61     9    27    1
    62     2    25    1
    63     2    24    1
    64     1    23    1
