@<TRIPOS>MOLECULE
65
 55 59 0 0 0
SMALL
GASTEIGER

@<TRIPOS>ATOM
      1 ****        2.3142   -1.2204   -1.4841 C.3     1  WATER21111    0.0062
      2 ****        3.8517   -1.2609   -1.5066 C.3     1  WATER21111   -0.0458
      3 C3          4.4998    0.1217   -1.3959 C.1     1  WATER21111    0.2520
      4 C5          3.6431    1.2293   -0.8811 C.1     1  WATER21111   -0.1237
      5 C5          2.3662    1.0756   -0.4391 C.1     1  WATER21111   -0.0180
      6 C6          1.6140    2.2357    0.0625 C.1     1  WATER21111   -0.0477
      7 C7          0.2792    2.2704    0.3232 C.2     1  WATER21111   -0.0417
      8 ****       -0.5959    1.0327    0.1317 C.3     1  WATER21111    0.0411
      9 ****        0.1307   -0.0394   -0.7803 C.3     1  WATER21111   -0.0155
     10 ****        1.6536   -0.2876   -0.4077 C.3     1  WATER21111   -0.0327
     11 ****       -0.7023   -1.3447   -0.9357 C.3     1  WATER21111   -0.0046
     12 ****       -2.1933   -1.1532   -1.2859 C.3     1  WATER21111    0.0195
     13 ****       -2.8899   -0.0992   -0.3896 C.3     1  WATER21111   -0.1195
     14 ****       -2.0282    1.2281   -0.4573 C.3     1  WATER21111   -0.0201
     15 ****       -3.0139    2.3374   -0.0053 C.3     1  WATER21111    0.0002
     16 ****       -4.4006    1.9018   -0.5319 C.3     1  WATER21111   -0.0534
     17 ****       -4.2699    0.4153   -0.8937 C.2     1  WATER21111    0.2322
     18 ****       -3.1467   -0.6811    1.0315 C.3     1  WATER21111    0.0536
     19 ****        1.8436   -0.9087    1.0083 C.3     1  WATER21111    0.0493
     20 ****       -5.1171   -0.2437   -1.4727 O.2     1  WATER21111   -0.2721
     21 ****        1.9731   -0.9120   -2.4997 H       1  WATER21111    0.0103
     22 ****        1.9641   -2.2683   -1.3470 H       1  WATER21111    0.0116
     23 ****        4.2394   -1.8984   -0.6795 H       1  WATER21111    0.0313
     24 ****        4.1750   -1.7556   -2.4509 H       1  WATER21111    0.0345
     25 ****        1.4603   -1.9473    1.0608 H       1  WATER21111   -0.0006
     26 ****       -0.7056    0.6152    1.1632 H       1  WATER21111    0.0201
     27 ****        0.1650    0.4135   -1.8067 H       1  WATER21111    0.0131
     28 ****       -0.2715   -1.9623   -1.7566 H       1  WATER21111    0.0083
     29 ****       -0.6264   -1.9696   -0.0187 H       1  WATER21111    0.0086
     30 ****       -2.2831   -0.8632   -2.3578 H       1  WATER21111    0.0119
     31 ****       -2.7037   -2.1391   -1.2042 H       1  WATER21111    0.0188
     32 ****       -1.8607    1.4609   -1.5442 H       1  WATER21111    0.0123
     33 ****       -2.7447    3.3208   -0.4405 H       1  WATER21111    0.0179
     34 ****       -3.0389    2.4667    1.0958 H       1  WATER21111    0.0179
     35 ****       -5.1926    2.0495    0.2320 H       1  WATER21111    0.0365
     36 ****       -4.7001    2.4979   -1.4199 H       1  WATER21111    0.0368
     37 ****       -3.8484   -1.5396    0.9802 H       1  WATER21111    0.0063
     38 ****       -2.2252   -1.0515    1.5209 H       1  WATER21111    0.0000
     39 ****       -3.5934    0.0637    1.7205 H       1  WATER21111   -0.0040
     40 ****        1.3291   -0.3286    1.7991 H       1  WATER21111   -0.0011
     41 ****        2.2209    3.1285    0.2515 H       1  WATER21111    0.0604
     42 ****        2.9143   -0.9454    1.2964 H       1  WATER21111   -0.0026
     43 ****        4.1154    2.2165   -0.8807 H       1  WATER21111    0.0771
     44 ****        5.6726    0.3065   -1.7084 O.2     1  WATER21111   -0.2878
     45 ****       -0.2472    3.5246    0.9354 C.ar    2  <2>222     -0.0537
     46 ****       -0.4123    4.6997    0.1612 C.ar    2  <2>222     -0.0386
     47 ****       -0.8432    5.8989    0.7544 C.ar    2  <2>222     -0.0632
     48 ****       -1.1077    5.9514    2.1338 C.ar    2  <2>222     -0.0489
     49 ****       -0.9375    4.7972    2.9171 C.ar    2  <2>222     -0.0633
     50 ****       -0.5090    3.5961    2.3255 C.ar    2  <2>222     -0.0391
     51 ****       -0.2058    4.6853   -0.9105 H       2  <2>222      0.0615
     52 ****       -0.9706    6.7912    0.1404 H       2  <2>222      0.0630
     53 ****       -1.4399    6.8825    2.5935 H       2  <2>222      0.0630
     54 ****       -1.1345    4.8318    3.9892 H       2  <2>222      0.0626
     55 ****       -0.3727    2.7177    2.9583 H       2  <2>222      0.0599
@<TRIPOS>BOND
     1     1     2    1
     2     2     3    1
     3     3    44    2
     4     3     4    2
     5     4    43    1
     6     4     5    2
     7     5    10    1
     8     9    10    1
     9     9    11    1
    10    11    29    1
    11    11    12    1
    12    12    31    1
    13    12    30    1
    14    12    13    1
    15    13    18    1
    16    18    39    1
    17    18    37    1
    18    18    38    1
    19    13    17    1
    20    16    17    1
    21    16    36    1
    22    16    35    1
    23    15    16    1
    24    15    33    1
    25    15    34    1
    26    14    15    1
    27    14    32    1
    28     8    14    1
    29     8     9    1
    30     7     8    1
    31    45     7    1
    32    50    45   ar
    33    49    50   ar
    34    49    54    1
    35    48    49   ar
    36    47    48   ar
    37    46    47   ar
    38    45    46   ar
    39    46    51    1
    40    47    52    1
    41    48    53    1
    42    50    55    1
    43     6     7    2
    44     6    41    1
    45     5     6    2
    46     8    26    1
    47    13    14    1
    48    17    20    2
    49    11    28    1
    50     9    27    1
    51    10    19    1
    52    19    42    1
    53    19    40    1
    54    19    25    1
    55     1    10    1
    56     2    24    1
    57     2    23    1
    58     1    21    1
    59     1    22    1
