@<TRIPOS>MOLECULE
67
 60 64 0 0 0
SMALL
GASTEIGER

@<TRIPOS>ATOM
      1 ****        2.2321   -1.2612   -1.3299 C.3     1  WATER21111    0.0075
      2 ****        3.7439   -1.2487   -1.3083 C.3     1  WATER21111   -0.0512
      3 C3          4.3017    0.1206   -1.5689 C.1     1  WATER21111    0.2464
      4 ****       -0.2827    3.3938    1.1106 C.3     1  WATER21111    0.0708
      5 C5          3.5259    1.2392   -1.0171 C.1     1  WATER21111   -0.1125
      6 C5          2.3027    1.0861   -0.4753 C.1     1  WATER21111   -0.0241
      7 C6          1.5831    2.2215    0.0739 C.1     1  WATER21111   -0.0340
      8 C7          0.2697    2.2123    0.3818 C.2     1  WATER21111   -0.1083
      9 ****       -0.5821    0.9998    0.1649 C.3     1  WATER21111    0.0306
     10 ****        0.1300    0.0005   -0.7818 C.3     1  WATER21111   -0.0227
     11 ****        1.5976   -0.2443   -0.3739 C.3     1  WATER21111   -0.0493
     12 ****       -0.6523   -1.2970   -0.9323 C.3     1  WATER21111   -0.0099
     13 ****       -2.0832   -1.0710   -1.3860 C.3     1  WATER21111    0.0172
     14 ****       -2.7756   -0.0796   -0.4734 C.3     1  WATER21111   -0.1328
     15 ****       -1.9546    1.2380   -0.4532 C.3     1  WATER21111   -0.0288
     16 ****       -2.9521    2.2594    0.0917 C.3     1  WATER21111   -0.0043
     17 ****       -4.2886    1.8569   -0.5361 C.3     1  WATER21111   -0.0565
     18 ****       -4.1397    0.4103   -0.9531 C.2     1  WATER21111    0.2332
     19 ****       -3.0033   -0.6865    0.9048 C.3     1  WATER21111    0.0491
     20 ****        1.7090   -0.7605    1.0561 C.3     1  WATER21111    0.0474
     21 ****       -4.9757   -0.2511   -1.5608 O.2     1  WATER21111   -0.2690
     22 ****        1.8822   -1.0482   -2.3752 H       1  WATER21111    0.0150
     23 ****        1.8790   -2.2902   -1.0546 H       1  WATER21111    0.0165
     24 ****        4.1251   -1.5877   -0.3070 H       1  WATER21111    0.0331
     25 ****        4.1362   -1.9683   -2.0754 H       1  WATER21111    0.0398
     26 ****        1.1110   -1.6949    1.1787 H       1  WATER21111    0.0031
     27 ****       -0.7170    0.5196    1.1774 H       1  WATER21111    0.0287
     28 ****        0.1648    0.4865   -1.8019 H       1  WATER21111    0.0190
     29 ****       -0.1491   -1.9466   -1.6973 H       1  WATER21111    0.0148
     30 ****       -0.6468   -1.8609    0.0366 H       1  WATER21111    0.0129
     31 ****       -2.0928   -0.6816   -2.4377 H       1  WATER21111    0.0151
     32 ****       -2.6409   -2.0436   -1.3829 H       1  WATER21111    0.0254
     33 ****       -1.7725    1.5342   -1.5304 H       1  WATER21111    0.0174
     34 ****       -2.6686    3.3011   -0.1980 H       1  WATER21111    0.0168
     35 ****       -3.0227    2.2053    1.2065 H       1  WATER21111    0.0175
     36 ****       -5.1330    1.9632    0.1889 H       1  WATER21111    0.0413
     37 ****       -4.5228    2.4851   -1.4320 H       1  WATER21111    0.0410
     38 ****       -3.7185   -1.5414    0.8188 H       1  WATER21111    0.0116
     39 ****       -2.0514   -1.0690    1.3422 H       1  WATER21111    0.0032
     40 ****       -3.4343    0.0715    1.6022 H       1  WATER21111   -0.0027
     41 ****        1.3367    0.0037    1.7797 H       1  WATER21111   -0.0004
     42 ****        2.1881    3.1275    0.2586 H       1  WATER21111    0.0607
     43 ****        2.7746   -0.9867    1.3019 H       1  WATER21111    0.0009
     44 ****        4.0076    2.2294   -1.0801 H       1  WATER21111    0.0805
     45 ****        5.3591    0.2935   -2.1864 O.2     1  WATER21111   -0.2839
     46 ****       -1.2690    3.1400    1.5848 H       1  WATER21111    0.0230
     47 ****        0.4168    3.6314    1.9643 H       1  WATER21111    0.0173
     48 ****       -0.4465    4.6233    0.2841 C.ar    2  <2>222     -0.0402
     49 ****       -0.6042    4.5658   -1.1054 C.ar    2  <2>222     -0.0611
     50 ****       -0.7725    5.7280   -1.8530 C.ar    2  <2>222      0.0141
     51 ****       -0.7867    6.9685   -1.1960 C.ar    2  <2>222     -0.0957
     52 ****       -0.6278    7.0442    0.1977 C.ar    2  <2>222      0.0131
     53 ****       -0.4589    5.8709    0.9248 C.ar    2  <2>222     -0.0629
     54 ****       -0.5899    3.5883   -1.6151 H       2  <2>222      0.0754
     55 ****       -0.8929    5.6760   -2.9488 H       2  <2>222      0.0987
     56 N56        -0.9709    8.2154   -1.9826 N.pl3   2  <2>222      0.5040
     57 ****       -0.6356    8.0236    0.7067 H       2  <2>222      0.0985
     58 ****       -0.3311    5.9264    2.0170 H       2  <2>222      0.0752
     59 O59        -1.1182    8.1360   -3.1729 O.2     2  <2>222     -0.3423
     60 O60        -0.9702    9.2713   -1.4079 O.2     2  <2>222     -0.3429
@<TRIPOS>BOND
     1     1     2    1
     2     2    24    1
     3     2    25    1
     4     2     3    1
     5     3     5    2
     6     5     6    2
     7     6     7    2
     8     7     8    2
     9     8     4    1
    10     4    46    1
    11     4    47    1
    12     4    48    1
    13    53    48   ar
    14    53    58    1
    15    52    53   ar
    16    51    52   ar
    17    50    51   ar
    18    50    55    1
    19    49    50   ar
    20    49    54    1
    21    48    49   ar
    22    51    56    1
    23    56    59    2
    24    56    60    2
    25    52    57    1
    26     8     9    1
    27     9    15    1
    28    14    15    1
    29    14    18    1
    30    17    18    1
    31    17    36    1
    32    16    17    1
    33    16    35    1
    34    16    34    1
    35    15    16    1
    36    17    37    1
    37    18    21    2
    38    13    14    1
    39    13    31    1
    40    12    13    1
    41    12    30    1
    42    12    29    1
    43    10    12    1
    44    10    11    1
    45     1    11    1
    46     6    11    1
    47    11    20    1
    48    20    41    1
    49    20    43    1
    50    20    26    1
    51     9    10    1
    52    10    28    1
    53    13    32    1
    54    14    19    1
    55    19    40    1
    56    19    39    1
    57    19    38    1
    58    15    33    1
    59     9    27    1
    60     7    42    1
    61     5    44    1
    62     3    45    2
    63     1    22    1
    64     1    23    1
