@<TRIPOS>MOLECULE
70
 63 67 0 0 0
SMALL
GASTEIGER

@<TRIPOS>ATOM
      1 ****        2.2308   -1.2574   -1.3303 C.3     1  WATER21111    0.0076
      2 ****        3.7421   -1.2607   -1.2921 C.3     1  WATER21111   -0.0508
      3 C3          4.3124    0.1066   -1.5439 C.1     1  WATER21111    0.2485
      4 ****       -0.2935    3.4108    1.0699 C.3     1  WATER21111    0.0284
      5 C5          3.5346    1.2322   -1.0133 C.1     1  WATER21111   -0.1235
      6 C5          2.3036    1.0916   -0.4842 C.1     1  WATER21111   -0.0132
      7 C6          1.5808    2.2311    0.0503 C.1     1  WATER21111   -0.0482
      8 C7          0.2689    2.2211    0.3654 C.2     1  WATER21111   -0.0941
      9 ****       -0.5819    1.0065    0.1544 C.3     1  WATER21111    0.0305
     10 ****        0.1293    0.0079   -0.7932 C.3     1  WATER21111   -0.0231
     11 ****        1.5953   -0.2370   -0.3801 C.3     1  WATER21111   -0.0508
     12 ****       -0.6494   -1.2908   -0.9499 C.3     1  WATER21111   -0.0095
     13 ****       -2.0838   -1.0684   -1.3936 C.3     1  WATER21111    0.0179
     14 ****       -2.7729   -0.0824   -0.4729 C.3     1  WATER21111   -0.1340
     15 ****       -1.9584    1.2398   -0.4575 C.3     1  WATER21111   -0.0258
     16 ****       -2.9581    2.2545    0.0960 C.3     1  WATER21111   -0.0041
     17 ****       -4.2988    1.8431   -0.5173 C.3     1  WATER21111   -0.0569
     18 ****       -4.1447    0.3982   -0.9375 C.2     1  WATER21111    0.2343
     19 ****       -2.9829   -0.6935    0.9065 C.3     1  WATER21111    0.0497
     20 ****        1.7014   -0.7466    1.0526 C.3     1  WATER21111    0.0477
     21 ****       -4.9844   -0.2673   -1.5365 O.2     1  WATER21111   -0.2741
     22 ****        1.8947   -1.0392   -2.3790 H       1  WATER21111    0.0140
     23 ****        1.8654   -2.2838   -1.0607 H       1  WATER21111    0.0143
     24 ****        4.1095   -1.6049   -0.2878 H       1  WATER21111    0.0323
     25 ****        4.1366   -1.9810   -2.0570 H       1  WATER21111    0.0375
     26 ****        1.0997   -1.6779    1.1795 H       1  WATER21111    0.0011
     27 ****       -0.7116    0.5283    1.1683 H       1  WATER21111    0.0264
     28 ****        0.1666    0.4964   -1.8119 H       1  WATER21111    0.0197
     29 ****       -0.1487   -1.9323   -1.7233 H       1  WATER21111    0.0128
     30 ****       -0.6362   -1.8628    0.0142 H       1  WATER21111    0.0118
     31 ****       -2.1021   -0.6753   -2.4439 H       1  WATER21111    0.0142
     32 ****       -2.6379   -2.0430   -1.3902 H       1  WATER21111    0.0230
     33 ****       -1.7827    1.5387   -1.5343 H       1  WATER21111    0.0193
     34 ****       -2.6891    3.2981   -0.1966 H       1  WATER21111    0.0218
     35 ****       -3.0153    2.2013    1.2117 H       1  WATER21111    0.0174
     36 ****       -5.1357    1.9425    0.2172 H       1  WATER21111    0.0390
     37 ****       -4.5469    2.4700   -1.4101 H       1  WATER21111    0.0393
     38 ****       -3.6922   -1.5535    0.8260 H       1  WATER21111    0.0093
     39 ****       -2.0237   -1.0697    1.3335 H       1  WATER21111    0.0034
     40 ****       -3.4116    0.0608    1.6094 H       1  WATER21111   -0.0026
     41 ****        1.3304    0.0235    1.7708 H       1  WATER21111    0.0015
     42 ****        2.1767    3.1475    0.2170 H       1  WATER21111    0.0656
     43 ****        2.7656   -0.9744    1.3022 H       1  WATER21111   -0.0005
     44 ****        4.0204    2.2200   -1.0791 H       1  WATER21111    0.0810
     45 ****        5.3839    0.2674   -2.1415 O.2     1  WATER21111   -0.2912
     46 C46        -0.5201    4.6044    0.1509 C.3     1  WATER21111    0.0493
     47 ****        0.4188    3.7120    1.8885 H       1  WATER21111    0.0129
     48 ****        0.6322    5.5454    0.1291 C.ar    2  <2>222     -0.1430
     49 ****        0.9454    6.3047    1.2627 C.ar    2  <2>222     -0.0049
     50 ****        2.0020    7.2046    1.2534 C.ar    2  <2>222     -0.1178
     51 ****        2.7929    7.3683    0.0909 C.ar    2  <2>222      0.0912
     52 ****        2.4665    6.6052   -1.0542 C.ar    2  <2>222     -0.1193
     53 ****        1.4051    5.7091   -1.0245 C.ar    2  <2>222     -0.0026
     54 ****        0.3415    6.1887    2.1760 H       2  <2>222      0.0561
     55 ****        2.2267    7.7856    2.1601 H       2  <2>222      0.0618
     56 N56         3.9144    8.2027    0.1009 N.pl3   2  <2>222     -0.2818
     57 ****        3.0586    6.7104   -1.9756 H       2  <2>222      0.0629
     58 ****        1.1710    5.1218   -1.9262 H       2  <2>222      0.0578
     59 ****       -0.7401    4.2437   -0.8893 H       1  WATER21111    0.0067
     60 ****       -1.4288    5.1629    0.5079 H       1  WATER21111    0.0057
     61 ****       -1.2534    3.1379    1.5793 H       1  WATER21111    0.0074
     62 H62         4.2071    8.5118   -0.7991 H       2  <2>222      0.1457
     63 H63         3.8804    8.9318    0.7779 H       2  <2>222      0.1451
@<TRIPOS>BOND
     1     1    23    1
     2     1    22    1
     3     1    11    1
     4    11    20    1
     5    20    43    1
     6    20    41    1
     7    20    26    1
     8    10    11    1
     9    10    28    1
    10    10    12    1
    11    12    30    1
    12    12    29    1
    13    12    13    1
    14    13    32    1
    15    13    31    1
    16    13    14    1
    17    14    19    1
    18    19    40    1
    19    19    39    1
    20    19    38    1
    21    14    18    1
    22    18    21    2
    23    17    18    1
    24    17    37    1
    25    17    36    1
    26    16    17    1
    27    16    35    1
    28    16    34    1
    29    15    16    1
    30    15    33    1
    31    14    15    1
    32     9    15    1
    33     9    27    1
    34     9    10    1
    35     8     9    1
    36     7     8    2
    37     7    42    1
    38     6     7    2
    39     6    11    1
    40     5     6    2
    41     5    44    1
    42     3     5    2
    43     3    45    2
    44     2     3    1
    45     2    25    1
    46     2    24    1
    47     1     2    1
    48     8     4    1
    49     4    61    1
    50     4    47    1
    51     4    46    1
    52    46    60    1
    53    46    59    1
    54    48    46    1
    55    53    48   ar
    56    53    58    1
    57    52    53   ar
    58    51    52   ar
    59    51    56    1
    60    56    63    1
    61    56    62    1
    62    50    51   ar
    63    50    55    1
    64    49    50   ar
    65    49    54    1
    66    48    49   ar
    67    52    57    1
