@<TRIPOS>MOLECULE
72
 49 53 0 0 0
SMALL
GASTEIGER

@<TRIPOS>ATOM
      1 ****        2.3578   -1.1367   -1.6107 C.3     1  WATER21111    0.0088
      2 ****        3.8441   -1.3210   -1.2275 C.3     1  WATER21111   -0.1247
      3 C3          4.5247    0.0618   -1.2763 C.1     1  WATER21111    0.2680
      4 ****        1.8125    2.2003    1.3270 H       1  WATER21111    0.0193
      5 C5          3.6916    1.1932   -0.7661 C.1     1  WATER21111   -0.1232
      6 C5          2.3884    1.0710   -0.3989 C.2     1  WATER21111   -0.0486
      7 C6          1.6845    2.2603    0.2193 C.3     1  WATER21111    0.0266
      8 C7          0.1941    2.3963   -0.1185 C.3     1  WATER21111   -0.0023
      9 ****       -0.5810    1.0596   -0.0470 C.3     1  WATER21111   -0.0140
     10 ****        0.1297   -0.0317   -0.9270 C.3     1  WATER21111   -0.0050
     11 ****        1.6380   -0.2759   -0.5133 C.3     1  WATER21111   -0.0596
     12 ****       -0.7216   -1.3263   -1.1044 C.3     1  WATER21111   -0.0046
     13 ****       -2.2414   -1.1472   -1.3302 C.3     1  WATER21111    0.0224
     14 ****       -2.8840   -0.1299   -0.3529 C.3     1  WATER21111   -0.1179
     15 ****       -2.0593    1.2051   -0.4966 C.3     1  WATER21111   -0.0274
     16 ****       -2.9815    2.3130    0.0746 C.3     1  WATER21111   -0.0016
     17 ****       -4.4140    1.8663   -0.2983 C.3     1  WATER21111   -0.0514
     18 ****       -4.3116    0.3847   -0.7032 C.2     1  WATER21111    0.2325
     19 ****       -2.9873   -0.7358    1.0765 C.3     1  WATER21111    0.0544
     20 ****        1.8209   -1.0514    0.8568 C.3     1  WATER21111    0.1897
     21 ****       -5.2089   -0.2679   -1.2086 O.2     1  WATER21111   -0.2706
     22 ****        2.2765   -0.6602   -2.6124 H       1  WATER21111    0.0195
     23 ****        1.8883   -2.1382   -1.7207 H       1  WATER21111    0.0160
     24 C24         3.9605   -1.9843    0.1803 C.3     1  WATER21111    0.1862
     25 ****        4.3268   -2.0059   -1.9622 H       1  WATER21111    0.0533
     26 ****        1.2044   -1.9873    0.8600 H       1  WATER21111   -0.0047
     27 ****       -0.5698    0.7387    1.0214 H       1  WATER21111    0.0191
     28 ****        0.1917    0.4059   -1.9593 H       1  WATER21111    0.0128
     29 ****       -0.3407   -1.8815   -1.9927 H       1  WATER21111    0.0073
     30 ****       -0.5861   -2.0127   -0.2406 H       1  WATER21111    0.0074
     31 ****       -2.4209   -0.8320   -2.3832 H       1  WATER21111    0.0118
     32 ****       -2.7269   -2.1442   -1.2356 H       1  WATER21111    0.0189
     33 ****       -2.0106    1.4392   -1.5959 H       1  WATER21111    0.0122
     34 ****       -2.7511    3.3025   -0.3725 H       1  WATER21111    0.0164
     35 ****       -2.8730    2.4359    1.1722 H       1  WATER21111    0.0167
     36 ****       -5.1142    1.9884    0.5544 H       1  WATER21111    0.0367
     37 ****       -4.8197    2.4740   -1.1344 H       1  WATER21111    0.0372
     38 ****       -3.6572   -1.6207    1.0770 H       1  WATER21111    0.0071
     39 ****       -2.0103   -1.0714    1.4749 H       1  WATER21111   -0.0004
     40 ****       -3.3979   -0.0161    1.8132 H       1  WATER21111   -0.0040
     41 ****        1.4611   -0.4353    1.7179 H       1  WATER21111    0.0277
     42 ****        2.1864    3.2079   -0.0864 H       1  WATER21111    0.0155
     43 ****        4.2132    2.1508   -0.6826 H       1  WATER21111    0.0791
     44 ****        5.6608    0.2165   -1.7073 O.2     1  WATER21111   -0.2809
     45 ****       -0.2501    3.1271    0.5950 H       1  WATER21111    0.0100
     46 ****        0.0921    2.8536   -1.1293 H       1  WATER21111    0.0113
     47 ****        5.0122   -1.9339    0.5592 H       1  WATER21111    0.0356
     48 O49         3.1557   -1.3691    1.1496 O.3     1  WATER21111   -0.3351
     49 ****        3.7094   -3.0746    0.0886 H       1  WATER21111   -0.0035
@<TRIPOS>BOND
     1     1     2    1
     2     2     3    1
     3     3    44    2
     4     3     5    2
     5     5    43    1
     6     5     6    2
     7     6     7    1
     8     7    42    1
     9     7     8    1
    10     8    45    1
    11     8    46    1
    12     8     9    1
    13     9    15    1
    14    14    15    1
    15    14    19    1
    16    19    39    1
    17    19    40    1
    18    19    38    1
    19    13    14    1
    20    12    13    1
    21    12    29    1
    22    12    30    1
    23    10    12    1
    24     9    10    1
    25    10    28    1
    26    10    11    1
    27     6    11    1
    28    11    20    1
    29    20    41    1
    30    20    26    1
    31    20    48    1
    32    24    48    1
    33    24    49    1
    34     2    24    1
    35    24    47    1
    36     1    11    1
    37    13    31    1
    38    13    32    1
    39    14    18    1
    40    17    18    1
    41    17    37    1
    42    16    17    1
    43    15    16    1
    44    16    34    1
    45    16    35    1
    46    17    36    1
    47    18    21    2
    48    15    33    1
    49     9    27    1
    50     7     4    1
    51     2    25    1
    52     1    22    1
    53     1    23    1
