@<TRIPOS>MOLECULE
73
 49 53 0 0 0
SMALL
GASTEIGER

@<TRIPOS>ATOM
      1 ****        2.3476   -1.2071   -1.5079 C.3     1  WATER21111    0.0021
      2 ****        3.8801   -1.2912   -1.3104 C.3     1  WATER21111   -0.0910
      3 C3          4.4712    0.1281   -1.4368 C.1     1  WATER21111    0.2637
      4 ****        1.8153    2.1188    1.4061 H       1  WATER21111    0.0197
      5 C5          3.6457    1.2213   -0.8422 C.1     1  WATER21111   -0.1202
      6 C5          2.3822    1.0590   -0.3722 C.2     1  WATER21111   -0.0541
      7 C6          1.6898    2.2257    0.3021 C.3     1  WATER21111    0.0269
      8 C7          0.2014    2.3795   -0.0392 C.3     1  WATER21111   -0.0023
      9 ****       -0.5843    1.0474   -0.0043 C.3     1  WATER21111   -0.0137
     10 ****        0.1374   -0.0480   -0.8712 C.3     1  WATER21111   -0.0069
     11 ****        1.6448   -0.2980   -0.4364 C.3     1  WATER21111   -0.0239
     12 ****       -0.7163   -1.3401   -1.0503 C.3     1  WATER21111   -0.0043
     13 ****       -2.2265   -1.1485   -1.3256 C.3     1  WATER21111    0.0223
     14 ****       -2.8900   -0.1191   -0.3752 C.3     1  WATER21111   -0.1180
     15 ****       -2.0480    1.2075   -0.4960 C.3     1  WATER21111   -0.0274
     16 ****       -2.9774    2.3244    0.0453 C.3     1  WATER21111   -0.0015
     17 ****       -4.3997    1.8934   -0.3816 C.3     1  WATER21111   -0.0514
     18 ****       -4.2997    0.4084   -0.7753 C.2     1  WATER21111    0.2325
     19 ****       -3.0469   -0.7176    1.0525 C.3     1  WATER21111    0.0544
     20 ****        1.7997   -1.0091    0.9485 C.3     1  WATER21111   -0.0708
     21 ****       -5.1864   -0.2378   -1.3066 O.2     1  WATER21111   -0.2704
     22 ****        2.1454   -0.8239   -2.5336 H       1  WATER21111    0.0202
     23 ****        1.9322   -2.2385   -1.4868 H       1  WATER21111    0.0173
     24 C24         4.2644   -1.9756    0.0191 C.3     1  WATER21111   -0.0729
     25 ****        4.2893   -1.9267   -2.1339 H       1  WATER21111    0.0510
     26 ****        1.2123   -1.9516    0.9716 H       1  WATER21111    0.0222
     27 ****       -0.6070    0.7189    1.0615 H       1  WATER21111    0.0193
     28 ****        0.2147    0.3858   -1.9037 H       1  WATER21111    0.0130
     29 ****       -0.3151   -1.9155   -1.9166 H       1  WATER21111    0.0071
     30 ****       -0.6098   -2.0103   -0.1696 H       1  WATER21111    0.0079
     31 ****       -2.3689   -0.8377   -2.3856 H       1  WATER21111    0.0118
     32 ****       -2.7249   -2.1402   -1.2409 H       1  WATER21111    0.0192
     33 ****       -1.9648    1.4401   -1.5936 H       1  WATER21111    0.0120
     34 ****       -2.7204    3.3128   -0.3897 H       1  WATER21111    0.0165
     35 ****       -2.9083    2.4430    1.1466 H       1  WATER21111    0.0167
     36 ****       -5.1327    2.0294    0.4409 H       1  WATER21111    0.0370
     37 ****       -4.7630    2.5013   -1.2372 H       1  WATER21111    0.0372
     38 ****       -3.7094   -1.6077    1.0310 H       1  WATER21111    0.0072
     39 ****       -2.0844   -1.0433    1.4922 H       1  WATER21111   -0.0003
     40 ****       -3.4923    0.0030    1.7677 H       1  WATER21111   -0.0040
     41 ****        1.4074   -0.3824    1.7764 H       1  WATER21111    0.0397
     42 ****        2.1966    3.1839    0.0413 H       1  WATER21111    0.0158
     43 ****        4.1434    2.1943   -0.7889 H       1  WATER21111    0.0805
     44 ****        5.5413    0.3392   -1.9946 O.2     1  WATER21111   -0.2765
     45 ****       -0.2428    3.0943    0.6905 H       1  WATER21111    0.0105
     46 ****        0.1087    2.8627   -1.0385 H       1  WATER21111    0.0116
     47 ****        5.3475   -1.8483    0.2313 H       1  WATER21111    0.0479
     48 S49         3.4272   -1.3921    1.4196 S.3     1  WATER21111    0.0426
     49 ****        4.0942   -3.0711   -0.0757 H       1  WATER21111    0.0241
@<TRIPOS>BOND
     1     1    11    1
     2    10    11    1
     3    10    12    1
     4    12    13    1
     5    13    14    1
     6    14    15    1
     7    15    16    1
     8    16    17    1
     9    17    37    1
    10    17    36    1
    11    17    18    1
    12    18    21    2
    13    14    18    1
    14    16    34    1
    15    16    35    1
    16     9    15    1
    17     9    27    1
    18     9    10    1
    19     8     9    1
    20     8    45    1
    21     7     8    1
    22     7     4    1
    23     7    42    1
    24     6     7    1
    25     6    11    1
    26     5     6    2
    27     5    43    1
    28     3     5    2
    29     3    44    2
    30     2     3    1
    31     1     2    1
    32     2    25    1
    33     2    24    1
    34    24    49    1
    35    24    48    1
    36    20    48    1
    37    20    41    1
    38    11    20    1
    39    20    26    1
    40    24    47    1
    41     8    46    1
    42    15    33    1
    43    14    19    1
    44    19    39    1
    45    19    40    1
    46    19    38    1
    47    13    31    1
    48    13    32    1
    49    12    30    1
    50    12    29    1
    51    10    28    1
    52     1    23    1
    53     1    22    1
