@<TRIPOS>MOLECULE
78
 49 53 0 0 0
SMALL
GASTEIGER

@<TRIPOS>ATOM
      1 ****        2.3734   -1.1234   -1.6505 C.3     1  WATER21111    0.0106
      2 ****        3.7656   -1.3517   -1.0136 C.3     1  WATER21111   -0.0925
      3 C3          4.5420   -0.0250   -1.1192 C.1     1  WATER21111    0.2612
      4 ****        1.9031    2.3921    1.1450 H       1  WATER21111    0.0117
      5 C5          3.7210    1.1792   -0.7737 C.1     1  WATER21111   -0.1322
      6 C5          2.3922    1.1048   -0.4841 C.2     1  WATER21111   -0.0610
      7 C6          1.6888    2.3328    0.0496 C.3     1  WATER21111    0.0291
      8 C7          0.1726    2.4139   -0.1652 C.3     1  WATER21111   -0.0036
      9 ****       -0.5696    1.0589   -0.0582 C.3     1  WATER21111   -0.0110
     10 ****        0.1362   -0.0106   -0.9661 C.3     1  WATER21111    0.0049
     11 ****        1.6406   -0.2503   -0.5674 C.3     1  WATER21111   -0.0435
     12 ****       -0.7156   -1.2890   -1.2348 C.3     1  WATER21111   -0.0051
     13 ****       -2.2410   -1.1031   -1.4175 C.3     1  WATER21111    0.0214
     14 ****       -2.8721   -0.1497   -0.3712 C.3     1  WATER21111   -0.1161
     15 ****       -2.0632    1.1981   -0.4590 C.3     1  WATER21111   -0.0282
     16 ****       -2.9825    2.2629    0.1943 C.3     1  WATER21111   -0.0019
     17 ****       -4.4184    1.8257   -0.1762 C.3     1  WATER21111   -0.0517
     18 ****       -4.3115    0.3694   -0.6641 C.2     1  WATER21111    0.2318
     19 ****       -2.9440   -0.8319    1.0242 C.3     1  WATER21111    0.0560
     20 ****        2.0618   -1.0034    0.7916 C.3     1  WATER21111    0.1376
     21 ****       -5.2144   -0.2627   -1.1852 O.2     1  WATER21111   -0.2704
     22 ****        2.4276   -0.6269   -2.6412 H       1  WATER21111    0.0183
     23 ****        1.8761   -2.0988   -1.8285 H       1  WATER21111    0.0263
     24 C24         3.4317   -1.7061    0.4598 C.3     1  WATER21111   -0.0021
     25 ****        4.3160   -2.1791   -1.5070 H       1  WATER21111    0.0552
     26 O26         1.1600   -1.9510    1.2675 O.3     1  WATER21111   -0.3105
     27 ****       -0.5152    0.7374    1.0081 H       1  WATER21111    0.0127
     28 ****        0.2075    0.4690   -1.9818 H       1  WATER21111    0.0075
     29 ****       -0.3482   -1.7533   -2.1803 H       1  WATER21111    0.0059
     30 ****       -0.5654   -2.0589   -0.4514 H       1  WATER21111    0.0254
     31 ****       -2.4445   -0.7263   -2.4460 H       1  WATER21111    0.0093
     32 ****       -2.7214   -2.1064   -1.3742 H       1  WATER21111    0.0189
     33 ****       -2.0459    1.4895   -1.5459 H       1  WATER21111    0.0126
     34 ****       -2.7698    3.2794   -0.1971 H       1  WATER21111    0.0158
     35 ****       -2.8523    2.3217    1.2950 H       1  WATER21111    0.0150
     36 ****       -5.1043    1.8942    0.6940 H       1  WATER21111    0.0361
     37 ****       -4.8438    2.4753   -0.9699 H       1  WATER21111    0.0370
     38 ****       -3.5875   -1.7352    0.9840 H       1  WATER21111    0.0082
     39 ****       -1.9543   -1.1569    1.3963 H       1  WATER21111   -0.0024
     40 ****       -3.3681   -0.1642    1.8015 H       1  WATER21111   -0.0068
     41 ****        2.2430   -0.2300    1.5869 H       1  WATER21111   -0.0004
     42 ****        2.1402    3.2518   -0.3930 H       1  WATER21111    0.0163
     43 ****        0.6712   -1.6236    2.0094 H       1  WATER21111    0.1834
     44 ****        4.2631    2.1270   -0.7343 H       1  WATER21111    0.0788
     45 ****        5.7192    0.0380   -1.4498 O.2     1  WATER21111   -0.2806
     46 ****       -0.2369    3.1226    0.5908 H       1  WATER21111    0.0081
     47 ****       -0.0198    2.8817   -1.1583 H       1  WATER21111    0.0117
     48 ****        4.2169   -1.3652    1.1662 H       1  WATER21111    0.0161
     49 ****        3.3783   -2.8090    0.5754 H       1  WATER21111    0.0369
@<TRIPOS>BOND
     1     1    23    1
     2     1    22    1
     3     1    11    1
     4    11    20    1
     5    20    41    1
     6    20    26    1
     7    26    43    1
     8    24    20    1
     9    24    49    1
    10    24    48    1
    11     2    24    1
    12     2    25    1
    13     2     3    1
    14     3    45    2
    15     3     5    2
    16     5    44    1
    17     5     6    2
    18    11     6    1
    19     6     7    1
    20     7    42    1
    21     7     8    1
    22     8    47    1
    23     8    46    1
    24     8     9    1
    25     9    27    1
    26     9    15    1
    27    15    33    1
    28    15    16    1
    29    16    35    1
    30    16    34    1
    31    16    17    1
    32    17    37    1
    33    17    36    1
    34    18    17    1
    35    18    21    2
    36    14    18    1
    37    14    19    1
    38    19    40    1
    39    19    39    1
    40    19    38    1
    41    15    14    1
    42    13    14    1
    43    13    32    1
    44    13    31    1
    45    12    13    1
    46    12    30    1
    47    12    29    1
    48    10    12    1
    49    10    28    1
    50    11    10    1
    51     9    10    1
    52     7     4    1
    53     1     2    1
