@<TRIPOS>MOLECULE
11
 36 38 0 0 0
SMALL
USER_CHARGES
****
From 3DB ct
@<TRIPOS>ATOM
      1 C          -2.1460    2.4930   -0.1590 C.ar    1  LIG1        0.2112
      2 H          -2.9840    3.1720   -0.3020 H       1  LIG1        0.0633
      3 C          -2.3600    1.1370    0.0300 C.ar    1  LIG1       -0.4806
      4 C          -1.2800    0.2810    0.2030 C.ar    1  LIG1        0.1603
      5 H          -1.4630   -0.7830    0.3380 H       1  LIG1        0.0657
      6 C           0.0360    0.7840    0.1870 C.ar    1  LIG1       -0.0195
      7 C           0.2770    2.1720    0.0570 C.ar    1  LIG1        0.1026
      8 C          -0.8420    3.0030   -0.1470 C.ar    1  LIG1       -0.2396
      9 H          -0.7450    4.0790   -0.2640 H       1  LIG1        0.1353
     10 N           1.5880    2.7570    0.1230 N.am    1  LIG1       -0.1650
     11 C           2.6360    2.2250    0.8800 C.2     1  LIG1        0.3936
     12 C           2.2970    1.0710    1.8160 C.3     1  LIG1        0.1150
     13 H           3.1280    0.9460    2.5180 H       1  LIG1        0.0609
     14 H           1.4080    1.2840    2.4200 H       1  LIG1        0.0186
     15 N           2.1760   -0.1420    1.0100 N.2     1  LIG1       -0.3939
     16 C           1.1360   -0.2310    0.2450 C.2     1  LIG1        0.1630
     17 C           1.0400   -1.4400   -0.6380 C.ar    1  LIG1        0.0947
     18 C           0.5430   -1.3420   -1.9440 C.ar    1  LIG1       -0.1867
     19 H           0.2180   -0.3890   -2.3540 H       1  LIG1        0.1165
     20 C           0.4730   -2.4810   -2.7500 C.ar    1  LIG1       -0.0748
     21 H           0.0840   -2.4050   -3.7640 H       1  LIG1        0.1029
     22 C           0.9060   -3.7130   -2.2600 C.ar    1  LIG1       -0.1075
     23 H           0.8510   -4.5990   -2.8910 H       1  LIG1        0.1061
     24 C           1.4160   -3.8110   -0.9660 C.ar    1  LIG1       -0.0647
     25 H           1.7580   -4.7720   -0.5870 H       1  LIG1        0.1005
     26 C           1.4880   -2.6760   -0.1560 C.ar    1  LIG1       -0.1579
     27 H           1.8880   -2.7640    0.8530 H       1  LIG1        0.1357
     28 O           3.7860    2.6780    0.8290 O.2     1  LIG1       -0.3630
     29 C           1.8790    3.9960   -0.6390 C.3     1  LIG1       -0.5005
     30 H           1.1670    4.1050   -1.4640 H       1  LIG1        0.2023
     31 H           2.8580    3.8640   -1.1170 H       1  LIG1        0.2061
     32 C           1.9360    5.2830    0.1890 C.3     1  LIG1        1.0235
     33 F           2.2000    6.3600   -0.5980 F       1  LIG1       -0.3117
     34 F           0.7630    5.5420    0.8200 F       1  LIG1       -0.3133
     35 F           2.8970    5.2550    1.1440 F       1  LIG1       -0.2990
     36 CL         -3.9630    0.5110    0.0360 Cl      1  LIG1        0.0995
@<TRIPOS>BOND
     1     2     1    1
     2     1     3   ar
     3     3     4   ar
     4     4     5    1
     5     4     6   ar
     6     6     7   ar
     7     7     8   ar
     8     8     9    1
     9     8     1   ar
    10     7    10    1
    11    10    11   am
    12    11    12    1
    13    12    13    1
    14    12    14    1
    15    12    15    1
    16    15    16    2
    17    16     6    1
    18    16    17    1
    19    17    18   ar
    20    18    19    1
    21    18    20   ar
    22    20    21    1
    23    20    22   ar
    24    22    23    1
    25    22    24   ar
    26    24    25    1
    27    24    26   ar
    28    26    27    1
    29    26    17   ar
    30    11    28    2
    31    10    29    1
    32    29    30    1
    33    29    31    1
    34    29    32    1
    35    32    33    1
    36    32    34    1
    37    32    35    1
    38     3    36    1
