@<TRIPOS>MOLECULE
13
 36 39 0 0 0
SMALL
USER_CHARGES
****
From 3DB ct
@<TRIPOS>ATOM
      1 C           0.2620    2.1660    0.0250 C.ar    1  LIG1        0.2358
      2 C           0.0430    0.7800    0.1690 C.ar    1  LIG1       -0.0803
      3 C           1.1560   -0.2280    0.2240 C.2     1  LIG1        0.3169
      4 N           2.2130   -0.1320    0.9650 N.2     1  LIG1       -0.3715
      5 C           2.3760    1.0480    1.8040 C.3     1  LIG1        0.0886
      6 H           3.2620    0.9010    2.4330 H       1  LIG1        0.0712
      7 H           1.5320    1.1780    2.4930 H       1  LIG1        0.0373
      8 C           2.5690    2.2260    0.9320 C.ar    1  LIG1       -0.1525
      9 N           1.5720    2.7130    0.1090 N.ar    1  LIG1       -0.2148
     10 C           2.1160    3.8270   -0.5280 C.ar    1  LIG1        0.3490
     11 N           3.3490    4.0670   -0.1100 N.ar    1  LIG1       -0.4057
     12 C           3.6370    3.0780    0.7860 C.ar    1  LIG1        0.0252
     13 H           4.5960    3.0260    1.2910 H       1  LIG1        0.1491
     14 C           1.4560    4.5920   -1.6230 C.3     1  LIG1       -0.2352
     15 H           2.2170    5.0600   -2.2580 H       1  LIG1        0.0972
     16 H           0.8330    5.3920   -1.2150 H       1  LIG1        0.0761
     17 H           0.8520    3.9460   -2.2670 H       1  LIG1        0.0779
     18 C           1.0500   -1.4400   -0.6430 C.ar    1  LIG1       -0.1860
     19 C           1.4930   -2.6750   -0.1520 C.ar    1  LIG1       -0.0551
     20 H           1.8990   -2.7560    0.8540 H       1  LIG1        0.1277
     21 C           1.4040   -3.8160   -0.9540 C.ar    1  LIG1       -0.1293
     22 H           1.7420   -4.7770   -0.5690 H       1  LIG1        0.1132
     23 C           0.8850   -3.7270   -2.2460 C.ar    1  LIG1       -0.0390
     24 H           0.8190   -4.6170   -2.8690 H       1  LIG1        0.1119
     25 C           0.4590   -2.4950   -2.7440 C.ar    1  LIG1       -0.2618
     26 H           0.0660   -2.4160   -3.7540 H       1  LIG1        0.1555
     27 C           0.5480   -1.3580   -1.9440 C.ar    1  LIG1        0.3667
     28 F           0.1610   -0.1820   -2.4610 F       1  LIG1       -0.2561
     29 C          -1.2730    0.2840    0.1830 C.ar    1  LIG1        0.1393
     30 H          -1.4640   -0.7790    0.3140 H       1  LIG1        0.0655
     31 C          -2.3510    1.1510    0.0240 C.ar    1  LIG1       -0.4344
     32 C          -2.1380    2.5150   -0.1420 C.ar    1  LIG1        0.1948
     33 H          -2.9790    3.1970   -0.2550 H       1  LIG1        0.0628
     34 C          -0.8370    3.0240   -0.1350 C.ar    1  LIG1       -0.2690
     35 H          -0.7220    4.1030   -0.1970 H       1  LIG1        0.1413
     36 CL         -3.9570    0.5310    0.0310 Cl      1  LIG1        0.0878
@<TRIPOS>BOND
     1     1     2   ar
     2     2     3    1
     3     3     4    2
     4     4     5    1
     5     5     6    1
     6     5     7    1
     7     5     8    1
     8     8     9   ar
     9     9     1    1
    10     9    10   ar
    11    10    11   ar
    12    11    12   ar
    13    12    13    1
    14    12     8   ar
    15    10    14    1
    16    14    15    1
    17    14    16    1
    18    14    17    1
    19     3    18    1
    20    18    19   ar
    21    19    20    1
    22    19    21   ar
    23    21    22    1
    24    21    23   ar
    25    23    24    1
    26    23    25   ar
    27    25    26    1
    28    25    27   ar
    29    27    18   ar
    30    27    28    1
    31     2    29   ar
    32    29    30    1
    33    29    31   ar
    34    31    32   ar
    35    32    33    1
    36    32    34   ar
    37    34    35    1
    38    34     1   ar
    39    31    36    1
