@<TRIPOS>MOLECULE
14
 30 32 0 0 0
SMALL
USER_CHARGES
****
From 3DB ct
@<TRIPOS>ATOM
      1 C          -2.1080    2.5050   -0.1810 C.ar    1  LIG1        0.2406
      2 H          -2.9350    3.1920   -0.3470 H       1  LIG1        0.0568
      3 C          -2.3390    1.1450   -0.0050 C.ar    1  LIG1       -0.4955
      4 C          -1.2730    0.2700    0.1870 C.ar    1  LIG1        0.1763
      5 H          -1.4720   -0.7940    0.2960 H       1  LIG1        0.0683
      6 C           0.0470    0.7560    0.2140 C.ar    1  LIG1       -0.1366
      7 C           0.2790    2.1390    0.1130 C.ar    1  LIG1        0.3317
      8 C          -0.8030    2.9980   -0.1270 C.ar    1  LIG1       -0.3521
      9 H          -0.6470    4.0700   -0.2390 H       1  LIG1        0.1529
     10 N           1.5390    2.7510    0.2290 N.am    1  LIG1       -0.5893
     11 H           1.6500    3.6880   -0.1490 H       1  LIG1        0.3300
     12 C           2.6300    2.2710    0.9060 C.2     1  LIG1        0.4851
     13 C           2.4210    1.0360    1.7700 C.3     1  LIG1        0.1084
     14 H           3.3170    0.8960    2.3840 H       1  LIG1        0.0528
     15 H           1.5830    1.1790    2.4620 H       1  LIG1        0.0216
     16 N           2.2510   -0.1420    0.9210 N.2     1  LIG1       -0.4083
     17 C           1.1630   -0.2440    0.2280 C.2     1  LIG1        0.2342
     18 C           1.0370   -1.4580   -0.6420 C.ar    1  LIG1        0.0496
     19 C           0.5240   -1.3620   -1.9420 C.ar    1  LIG1       -0.1424
     20 H           0.2100   -0.4060   -2.3540 H       1  LIG1        0.1079
     21 C           0.4260   -2.5060   -2.7380 C.ar    1  LIG1       -0.0969
     22 H           0.0250   -2.4330   -3.7470 H       1  LIG1        0.1061
     23 C           0.8460   -3.7410   -2.2430 C.ar    1  LIG1       -0.0997
     24 H           0.7680   -4.6310   -2.8660 H       1  LIG1        0.1033
     25 C           1.3710   -3.8360   -0.9540 C.ar    1  LIG1       -0.0641
     26 H           1.7040   -4.8000   -0.5720 H       1  LIG1        0.0970
     27 C           1.4730   -2.6960   -0.1550 C.ar    1  LIG1       -0.1525
     28 H           1.8850   -2.7800    0.8480 H       1  LIG1        0.1338
     29 O           3.7100    2.8700    0.8630 O.2     1  LIG1       -0.4108
     30 CL         -3.9480    0.5360   -0.0530 Cl      1  LIG1        0.0915
@<TRIPOS>BOND
     1     2     1    1
     2     1     3   ar
     3     3     4   ar
     4     4     5    1
     5     4     6   ar
     6     6     7   ar
     7     7     8   ar
     8     8     9    1
     9     8     1   ar
    10     7    10    1
    11    10    11    1
    12    10    12   am
    13    12    13    1
    14    13    14    1
    15    13    15    1
    16    13    16    1
    17    16    17    2
    18    17     6    1
    19    17    18    1
    20    18    19   ar
    21    19    20    1
    22    19    21   ar
    23    21    22    1
    24    21    23   ar
    25    23    24    1
    26    23    25   ar
    27    25    26    1
    28    25    27   ar
    29    27    28    1
    30    27    18   ar
    31    12    29    2
    32     3    30    1
