@<TRIPOS>MOLECULE
22
 35 37 0 0 0
SMALL
USER_CHARGES
****
From 3DB ct
@<TRIPOS>ATOM
      1 C          -2.1040    2.5020   -0.2400 C.ar    1  LIG1       -0.0911
      2 H          -2.9160    3.2010   -0.4250 H       1  LIG1        0.1726
      3 C          -2.3410    1.1370   -0.0610 C.ar    1  LIG1        0.0360
      4 C          -1.2740    0.2560    0.1590 C.ar    1  LIG1       -0.2042
      5 H          -1.4640   -0.8090    0.2700 H       1  LIG1        0.1969
      6 C           0.0450    0.7460    0.2140 C.ar    1  LIG1       -0.0263
      7 C           0.2810    2.1290    0.1020 C.ar    1  LIG1        0.2794
      8 C          -0.7960    2.9890   -0.1640 C.ar    1  LIG1       -0.2141
      9 H          -0.6330    4.0590   -0.2830 H       1  LIG1        0.1453
     10 N           1.5400    2.7430    0.2210 N.am    1  LIG1       -0.5787
     11 H           1.6510    3.6760   -0.1660 H       1  LIG1        0.3368
     12 C           2.6320    2.2730    0.9030 C.2     1  LIG1        0.4734
     13 C           2.4260    1.0460    1.7760 C.3     1  LIG1        0.1349
     14 H           3.3230    0.9100    2.3900 H       1  LIG1        0.0526
     15 H           1.5900    1.1940    2.4680 H       1  LIG1        0.0198
     16 N           2.2530   -0.1410    0.9400 N.2     1  LIG1       -0.4150
     17 C           1.1630   -0.2530    0.2570 C.2     1  LIG1        0.2817
     18 C           1.0410   -1.4820   -0.5890 C.ar    1  LIG1        0.0422
     19 C           1.4780   -2.7010   -0.0460 C.ar    1  LIG1       -0.1866
     20 H           1.9030   -2.7470    0.9550 H       1  LIG1        0.1497
     21 C           1.3550   -3.8810   -0.7790 C.ar    1  LIG1        0.0077
     22 H           1.6940   -4.8240   -0.3550 H       1  LIG1        0.1017
     23 C           0.7850   -3.8530   -2.0480 C.ar    1  LIG1       -0.1328
     24 H           0.6830   -4.7740   -2.6190 H       1  LIG1        0.1202
     25 C           0.3390   -2.6440   -2.5880 C.ar    1  LIG1       -0.0036
     26 H          -0.1080   -2.6490   -3.5830 H       1  LIG1        0.1157
     27 C           0.4640   -1.4380   -1.8720 C.ar    1  LIG1       -0.2657
     28 C          -0.0200   -0.1540   -2.4930 C.3     1  LIG1        0.9291
     29 F          -1.2550    0.2370   -2.0600 F       1  LIG1       -0.3065
     30 F          -0.1430   -0.2340   -3.8580 F       1  LIG1       -0.3002
     31 F           0.8130    0.9110   -2.2940 F       1  LIG1       -0.2841
     32 O           3.7100    2.8750    0.8560 O.2     1  LIG1       -0.3944
     33 N          -3.7150    0.6210   -0.1240 N.pl3   1  LIG1        0.5545
     34 O          -3.9030   -0.5860    0.1210 O.2     1  LIG1       -0.3758
     35 O          -4.6310    1.4110   -0.4200 O.2     1  LIG1       -0.3712
@<TRIPOS>BOND
     1     2     1    1
     2     1     3   ar
     3     3     4   ar
     4     4     5    1
     5     4     6   ar
     6     6     7   ar
     7     7     8   ar
     8     8     9    1
     9     8     1   ar
    10     7    10    1
    11    10    11    1
    12    10    12   am
    13    12    13    1
    14    13    14    1
    15    13    15    1
    16    13    16    1
    17    16    17    2
    18    17     6    1
    19    17    18    1
    20    18    19   ar
    21    19    20    1
    22    19    21   ar
    23    21    22    1
    24    21    23   ar
    25    23    24    1
    26    23    25   ar
    27    25    26    1
    28    25    27   ar
    29    27    18   ar
    30    27    28    1
    31    28    29    1
    32    28    30    1
    33    28    31    1
    34    12    32    2
    35     3    33    1
    36    33    34    2
    37    33    35    1
