@<TRIPOS>MOLECULE
25
 32 34 0 0 0
SMALL
USER_CHARGES
****
From 3DB ct
@<TRIPOS>ATOM
      1 C          -2.1030    2.5020   -0.2290 C.ar    1  LIG1       -0.1046
      2 H          -2.9180    3.2000   -0.4090 H       1  LIG1        0.1705
      3 C          -2.3370    1.1350   -0.0630 C.ar    1  LIG1        0.0529
      4 C          -1.2680    0.2550    0.1470 C.ar    1  LIG1       -0.1745
      5 H          -1.4550   -0.8120    0.2510 H       1  LIG1        0.1859
      6 C           0.0510    0.7470    0.2060 C.ar    1  LIG1       -0.0806
      7 C           0.2820    2.1320    0.1080 C.ar    1  LIG1        0.2674
      8 C          -0.7970    2.9910   -0.1500 C.ar    1  LIG1       -0.1978
      9 H          -0.6370    4.0640   -0.2580 H       1  LIG1        0.1402
     10 N           1.5390    2.7480    0.2360 N.am    1  LIG1       -0.5721
     11 H           1.6480    3.6860   -0.1390 H       1  LIG1        0.3286
     12 C           2.6300    2.2740    0.9180 C.2     1  LIG1        0.5006
     13 C           2.4250    1.0360    1.7760 C.3     1  LIG1        0.0485
     14 H           3.3190    0.8970    2.3920 H       1  LIG1        0.0717
     15 H           1.5840    1.1730    2.4660 H       1  LIG1        0.0355
     16 N           2.2610   -0.1400    0.9230 N.2     1  LIG1       -0.4175
     17 C           1.1710   -0.2500    0.2370 C.2     1  LIG1        0.4373
     18 C           1.0450   -1.4590   -0.6280 C.ar    1  LIG1       -0.2973
     19 C           1.4670   -2.7080   -0.1560 C.ar    1  LIG1       -0.0228
     20 H           1.8880   -2.8170    0.8420 H       1  LIG1        0.1238
     21 C           1.3360   -3.8370   -0.9680 C.ar    1  LIG1       -0.1260
     22 H           1.6630   -4.8090   -0.6040 H       1  LIG1        0.1125
     23 C           0.7810   -3.7220   -2.2440 C.ar    1  LIG1       -0.0308
     24 H           0.6800   -4.6040   -2.8750 H       1  LIG1        0.1117
     25 C           0.3540   -2.4790   -2.7120 C.ar    1  LIG1       -0.2538
     26 H          -0.0770   -2.3830   -3.7050 H       1  LIG1        0.1545
     27 C           0.4840   -1.3530   -1.9020 C.ar    1  LIG1        0.4033
     28 F           0.0890   -0.1660   -2.3860 F       1  LIG1       -0.2634
     29 O           3.7060    2.8800    0.8820 O.2     1  LIG1       -0.4031
     30 N          -3.7100    0.6150   -0.1300 N.pl3   1  LIG1        0.5394
     31 O          -3.8880   -0.6060    0.0370 O.2     1  LIG1       -0.3702
     32 O          -4.6360    1.4190   -0.3500 O.2     1  LIG1       -0.3699
@<TRIPOS>BOND
     1     2     1    1
     2     1     3   ar
     3     3     4   ar
     4     4     5    1
     5     4     6   ar
     6     6     7   ar
     7     7     8   ar
     8     8     9    1
     9     8     1   ar
    10     7    10    1
    11    10    11    1
    12    10    12   am
    13    12    13    1
    14    13    14    1
    15    13    15    1
    16    13    16    1
    17    16    17    2
    18    17     6    1
    19    17    18    1
    20    18    19   ar
    21    19    20    1
    22    19    21   ar
    23    21    22    1
    24    21    23   ar
    25    23    24    1
    26    23    25   ar
    27    25    26    1
    28    25    27   ar
    29    27    18   ar
    30    27    28    1
    31    12    29    2
    32     3    30    1
    33    30    31    2
    34    30    32    1
