@<TRIPOS>MOLECULE
26
 33 35 0 0 0
SMALL
USER_CHARGES
****
From 3DB ct
@<TRIPOS>ATOM
      1 C          -2.1320    2.4830   -0.1720 C.ar    1  LIG1       -0.1011
      2 H          -2.9750    3.1580   -0.3130 H       1  LIG1        0.1160
      3 C          -2.3530    1.1240    0.0000 C.ar    1  LIG1       -0.0807
      4 H          -3.3660    0.7270   -0.0080 H       1  LIG1        0.1047
      5 C          -1.2680    0.2690    0.1730 C.ar    1  LIG1       -0.1736
      6 H          -1.4640   -0.7950    0.2960 H       1  LIG1        0.1300
      7 C           0.0500    0.7690    0.1800 C.ar    1  LIG1        0.0508
      8 C           0.2870    2.1550    0.0530 C.ar    1  LIG1        0.0443
      9 C          -0.8300    2.9900   -0.1490 C.ar    1  LIG1       -0.1139
     10 H          -0.7190    4.0680   -0.2540 H       1  LIG1        0.1112
     11 N           1.5940    2.7450    0.1100 N.am    1  LIG1       -0.2630
     12 C           2.6420    2.2450    0.8870 C.2     1  LIG1        0.4419
     13 C           2.3180    1.0730    1.8040 C.3     1  LIG1        0.0506
     14 H           3.1530    0.9470    2.5030 H       1  LIG1        0.0663
     15 H           1.4300    1.2690    2.4140 H       1  LIG1        0.0254
     16 N           2.2070   -0.1370    0.9890 N.2     1  LIG1       -0.3957
     17 C           1.1530   -0.2400    0.2450 C.2     1  LIG1        0.2994
     18 C           1.0470   -1.4470   -0.6250 C.ar    1  LIG1       -0.1713
     19 C           1.4230   -2.7040   -0.1330 C.ar    1  LIG1       -0.0698
     20 H           1.7950   -2.8200    0.8830 H       1  LIG1        0.1337
     21 C           1.3090   -3.8320   -0.9490 C.ar    1  LIG1       -0.1166
     22 H           1.6010   -4.8090   -0.5680 H       1  LIG1        0.1102
     23 C           0.8190   -3.7090   -2.2510 C.ar    1  LIG1       -0.0587
     24 H           0.7320   -4.5910   -2.8840 H       1  LIG1        0.1124
     25 C           0.4390   -2.4590   -2.7390 C.ar    1  LIG1       -0.2271
     26 H           0.0590   -2.3570   -3.7520 H       1  LIG1        0.1457
     27 C           0.5510   -1.3350   -1.9250 C.ar    1  LIG1        0.3353
     28 F           0.2020   -0.1420   -2.4320 F       1  LIG1       -0.2445
     29 O           3.7760    2.7400    0.8820 O.2     1  LIG1       -0.3998
     30 C           1.8280    3.9900   -0.6200 C.3     1  LIG1       -0.0719
     31 H           2.8950    4.1460   -0.8030 H       1  LIG1        0.0908
     32 H           1.4620    4.8290   -0.0210 H       1  LIG1        0.0471
     33 H           1.3260    3.9610   -1.5920 H       1  LIG1        0.0719
@<TRIPOS>BOND
     1     2     1    1
     2     1     3   ar
     3     3     4    1
     4     3     5   ar
     5     5     6    1
     6     5     7   ar
     7     7     8   ar
     8     8     9   ar
     9     9    10    1
    10     9     1   ar
    11     8    11    1
    12    11    12   am
    13    12    13    1
    14    13    14    1
    15    13    15    1
    16    13    16    1
    17    16    17    2
    18    17     7    1
    19    17    18    1
    20    18    19   ar
    21    19    20    1
    22    19    21   ar
    23    21    22    1
    24    21    23   ar
    25    23    24    1
    26    23    25   ar
    27    25    26    1
    28    25    27   ar
    29    27    18   ar
    30    27    28    1
    31    12    29    2
    32    11    30    1
    33    30    31    1
    34    30    32    1
    35    30    33    1
