@<TRIPOS>MOLECULE
31
 33 35 0 0 0
SMALL
USER_CHARGES
****
From 3DB ct
@<TRIPOS>ATOM
      1 C          -2.1330    2.4850   -0.1710 C.ar    1  LIG1       -0.2672
      2 H          -2.9810    3.1500   -0.3090 H       1  LIG1        0.1680
      3 C          -2.3380    1.1270    0.0000 C.ar    1  LIG1        0.4177
      4 C          -1.2660    0.2650    0.1720 C.ar    1  LIG1       -0.3362
      5 H          -1.4710   -0.7950    0.2930 H       1  LIG1        0.1876
      6 C           0.0480    0.7670    0.1790 C.ar    1  LIG1        0.0466
      7 C           0.2850    2.1550    0.0530 C.ar    1  LIG1        0.0007
      8 C          -0.8310    2.9930   -0.1470 C.ar    1  LIG1       -0.0544
      9 H          -0.7200    4.0710   -0.2510 H       1  LIG1        0.1194
     10 N           1.5920    2.7450    0.1100 N.am    1  LIG1       -0.2366
     11 C           2.6400    2.2460    0.8870 C.2     1  LIG1        0.4232
     12 C           2.3180    1.0730    1.8040 C.3     1  LIG1        0.0521
     13 H           3.1520    0.9460    2.5020 H       1  LIG1        0.0693
     14 H           1.4290    1.2690    2.4140 H       1  LIG1        0.0293
     15 N           2.2050   -0.1360    0.9890 N.2     1  LIG1       -0.4047
     16 C           1.1530   -0.2410    0.2440 C.2     1  LIG1        0.3796
     17 C           1.0470   -1.4470   -0.6250 C.ar    1  LIG1       -0.2517
     18 C           1.4240   -2.7030   -0.1320 C.ar    1  LIG1       -0.0348
     19 H           1.7930   -2.8200    0.8850 H       1  LIG1        0.1258
     20 C           1.3130   -3.8310   -0.9490 C.ar    1  LIG1       -0.1251
     21 H           1.6050   -4.8090   -0.5680 H       1  LIG1        0.1117
     22 C           0.8250   -3.7090   -2.2520 C.ar    1  LIG1       -0.0466
     23 H           0.7400   -4.5910   -2.8860 H       1  LIG1        0.1115
     24 C           0.4440   -2.4600   -2.7410 C.ar    1  LIG1       -0.2316
     25 H           0.0660   -2.3580   -3.7550 H       1  LIG1        0.1463
     26 C           0.5540   -1.3350   -1.9270 C.ar    1  LIG1        0.3646
     27 F           0.2050   -0.1430   -2.4330 F       1  LIG1       -0.2488
     28 O           3.7740    2.7410    0.8820 O.2     1  LIG1       -0.3898
     29 C           1.8270    3.9890   -0.6210 C.3     1  LIG1       -0.0771
     30 H           2.8940    4.1440   -0.8040 H       1  LIG1        0.0922
     31 H           1.4620    4.8290   -0.0210 H       1  LIG1        0.0467
     32 H           1.3240    3.9610   -1.5920 H       1  LIG1        0.0740
     33 F          -3.5860    0.6390   -0.0110 F       1  LIG1       -0.2619
@<TRIPOS>BOND
     1     2     1    1
     2     1     3   ar
     3     3     4   ar
     4     4     5    1
     5     4     6   ar
     6     6     7   ar
     7     7     8   ar
     8     8     9    1
     9     8     1   ar
    10     7    10    1
    11    10    11   am
    12    11    12    1
    13    12    13    1
    14    12    14    1
    15    12    15    1
    16    15    16    2
    17    16     6    1
    18    16    17    1
    19    17    18   ar
    20    18    19    1
    21    18    20   ar
    22    20    21    1
    23    20    22   ar
    24    22    23    1
    25    22    24   ar
    26    24    25    1
    27    24    26   ar
    28    26    17   ar
    29    26    27    1
    30    11    28    2
    31    10    29    1
    32    29    30    1
    33    29    31    1
    34    29    32    1
    35     3    33    1
