@<TRIPOS>MOLECULE
35
 30 32 0 0 0
SMALL
USER_CHARGES
****
From 3DB ct
@<TRIPOS>ATOM
      1 C          -2.1070    2.4870   -0.1890 C.ar    1  LIG1        0.2544
      2 H          -2.9370    3.1700   -0.3590 H       1  LIG1        0.0550
      3 C          -2.3310    1.1250   -0.0260 C.ar    1  LIG1       -0.4842
      4 C          -1.2620    0.2550    0.1730 C.ar    1  LIG1        0.1849
      5 H          -1.4610   -0.8090    0.2760 H       1  LIG1        0.0697
      6 C           0.0550    0.7490    0.2210 C.ar    1  LIG1       -0.2683
      7 C           0.2800    2.1350    0.1260 C.ar    1  LIG1        0.4497
      8 C          -0.8060    2.9880   -0.1190 C.ar    1  LIG1       -0.3853
      9 H          -0.6550    4.0610   -0.2260 H       1  LIG1        0.1596
     10 N           1.5360    2.7550    0.2420 N.am    1  LIG1       -0.6757
     11 H           1.6370    3.6960   -0.1310 H       1  LIG1        0.3467
     12 C           2.6370    2.2820    0.9070 C.2     1  LIG1        0.5483
     13 C           2.4470    1.0390    1.7620 C.3     1  LIG1        0.0353
     14 H           3.3510    0.9010    2.3660 H       1  LIG1        0.0746
     15 H           1.6160    1.1710    2.4640 H       1  LIG1        0.0329
     16 N           2.2750   -0.1350    0.9080 N.2     1  LIG1       -0.4096
     17 C           1.1770   -0.2450    0.2340 C.2     1  LIG1        0.5161
     18 C           1.0410   -1.4530   -0.6230 C.ar    1  LIG1       -0.5260
     19 C           0.5200   -1.3520   -1.9130 C.ar    1  LIG1        0.5306
     20 C           0.4010   -2.4800   -2.7230 C.ar    1  LIG1       -0.3699
     21 H          -0.0070   -2.3850   -3.7260 H       1  LIG1        0.1779
     22 C           0.8110   -3.7250   -2.2430 C.ar    1  LIG1        0.0667
     23 H           0.7200   -4.6090   -2.8720 H       1  LIG1        0.1125
     24 C           1.3410   -3.8330   -0.9560 C.ar    1  LIG1       -0.3294
     25 H           1.6610   -4.7990   -0.5740 H       1  LIG1        0.1663
     26 C           1.4560   -2.6990   -0.1540 C.ar    1  LIG1        0.5084
     27 F           1.9460   -2.8400    1.0870 F       1  LIG1       -0.2442
     28 F           0.1350   -0.1650   -2.4060 F       1  LIG1       -0.2617
     29 O           3.7100    2.8910    0.8590 O.2     1  LIG1       -0.4223
     30 CL         -3.9360    0.5070   -0.0980 Cl      1  LIG1        0.0869
@<TRIPOS>BOND
     1     2     1    1
     2     1     3   ar
     3     3     4   ar
     4     4     5    1
     5     4     6   ar
     6     6     7   ar
     7     7     8   ar
     8     8     9    1
     9     8     1   ar
    10     7    10    1
    11    10    11    1
    12    10    12   am
    13    12    13    1
    14    13    14    1
    15    13    15    1
    16    13    16    1
    17    16    17    2
    18    17     6    1
    19    17    18    1
    20    18    19   ar
    21    19    20   ar
    22    20    21    1
    23    20    22   ar
    24    22    23    1
    25    22    24   ar
    26    24    25    1
    27    24    26   ar
    28    26    18   ar
    29    26    27    1
    30    19    28    1
    31    12    29    2
    32     3    30    1
