@<TRIPOS>MOLECULE
39
 27 29 0 0 0
SMALL
USER_CHARGES
****
From 3DB ct
@<TRIPOS>ATOM
      1 C           0.1720    1.9530    0.2950 C.ar    1  LIG1        0.0708
      2 C           0.0710    0.5770    0.2200 C.ar    1  LIG1       -0.0313
      3 C           1.2180   -0.3310    0.1450 C.2     1  LIG1        0.2678
      4 N           2.3400   -0.1200    0.7490 N.2     1  LIG1       -0.4232
      5 C           2.4830    1.0180    1.6600 C.3     1  LIG1        0.1290
      6 H           3.4530    0.9300    2.1630 H       1  LIG1        0.0401
      7 H           1.7240    1.0020    2.4520 H       1  LIG1        0.0158
      8 C           2.4610    2.3580    0.9310 C.2     1  LIG1        0.5327
      9 N           1.2550    2.7800    0.4360 N.am    1  LIG1       -0.5851
     10 H           1.1570    3.7570    0.1840 H       1  LIG1        0.3642
     11 O           3.4590    3.0850    0.8680 O.2     1  LIG1       -0.4170
     12 C           1.0950   -1.5580   -0.6970 C.ar    1  LIG1       -0.0274
     13 C           0.5840   -1.4980   -2.0000 C.ar    1  LIG1       -0.0926
     14 H           0.2650   -0.5530   -2.4360 H       1  LIG1        0.0951
     15 C           0.4930   -2.6600   -2.7680 C.ar    1  LIG1       -0.0988
     16 H           0.0940   -2.6140   -3.7800 H       1  LIG1        0.1021
     17 C           0.9200   -3.8800   -2.2440 C.ar    1  LIG1       -0.0919
     18 H           0.8500   -4.7850   -2.8460 H       1  LIG1        0.1032
     19 C           1.4450   -3.9420   -0.9540 C.ar    1  LIG1       -0.0874
     20 H           1.7840   -4.8940   -0.5480 H       1  LIG1        0.1031
     21 C           1.5380   -2.7820   -0.1810 C.ar    1  LIG1       -0.1171
     22 H           1.9510   -2.8410    0.8240 H       1  LIG1        0.1279
     23 C          -1.3210    0.2010    0.1520 C.ar    1  LIG1        0.0132
     24 H          -1.6840   -0.8190    0.1120 H       1  LIG1        0.1205
     25 C          -2.1460    1.2950    0.0970 C.ar    1  LIG1       -0.5120
     26 S          -1.3110    2.7640    0.1250 S.2     1  LIG1        0.2431
     27 CL         -3.8590    1.2870   -0.0210 Cl      1  LIG1        0.1551
@<TRIPOS>BOND
     1     1     2   ar
     2     2     3    1
     3     3     4    2
     4     4     5    1
     5     5     6    1
     6     5     7    1
     7     5     8    1
     8     8     9   am
     9     9    10    1
    10     9     1    1
    11     8    11    2
    12     3    12    1
    13    12    13   ar
    14    13    14    1
    15    13    15   ar
    16    15    16    1
    17    15    17   ar
    18    17    18    1
    19    17    19   ar
    20    19    20    1
    21    19    21   ar
    22    21    22    1
    23    21    12   ar
    24     2    23   ar
    25    23    24    1
    26    23    25   ar
    27    25    26   ar
    28    26     1   ar
    29    25    27    1
