@<TRIPOS>MOLECULE
55
 43 46 0 0 0
SMALL
USER_CHARGES
****
From 3DB ct
@<TRIPOS>ATOM
      1 C           0.2390    2.2010    0.1240 C.ar    1  LIG1        0.1072
      2 C           0.0530    0.7980    0.1690 C.ar    1  LIG1        0.1148
      3 C           1.1320   -0.2390    0.1540 C.2     1  LIG1       -0.2366
      4 C           2.2610   -0.0960    0.8740 C.2     1  LIG1        0.1002
      5 H           3.0330   -0.8650    0.8470 H       1  LIG1        0.0782
      6 C           2.5900    1.0890    1.7180 C.3     1  LIG1       -0.2761
      7 H           3.5580    0.8990    2.1920 H       1  LIG1        0.1281
      8 H           1.8740    1.1720    2.5460 H       1  LIG1        0.1061
      9 C           2.6260    2.3520    0.9380 C.ar    1  LIG1        0.0190
     10 N           1.5210    2.8150    0.2420 N.ar    1  LIG1       -0.0463
     11 C           1.8930    4.0380   -0.2730 C.ar    1  LIG1        0.0482
     12 H           1.2240    4.6440   -0.8730 H       1  LIG1        0.1857
     13 N           3.1380    4.3520    0.0060 N.ar    1  LIG1       -0.3440
     14 C           3.6270    3.3030    0.7630 C.ar    1  LIG1       -0.0307
     15 C           4.9850    3.2770    1.3380 C.2     1  LIG1        0.6285
     16 O           5.7890    4.1970    1.1840 O.2     1  LIG1       -0.4347
     17 O           5.3860    2.1620    2.0310 O.3     1  LIG1       -0.3727
     18 C           6.7010    2.0750    2.6170 C.3     1  LIG1        0.2096
     19 H           6.6710    2.5010    3.6240 H       1  LIG1        0.0163
     20 H           7.4400    2.5950    1.9980 H       1  LIG1        0.0221
     21 C           7.0690    0.6060    2.7080 C.3     1  LIG1       -0.1622
     22 H           8.0580    0.4790    3.1610 H       1  LIG1        0.0422
     23 H           7.0740    0.1470    1.7140 H       1  LIG1        0.0512
     24 H           6.3340    0.0590    3.3080 H       1  LIG1        0.0487
     25 C           1.0570   -1.4800   -0.6620 C.ar    1  LIG1       -0.1065
     26 C           1.5080   -2.6910   -0.1170 C.ar    1  LIG1       -0.0002
     27 H           1.8990   -2.7270    0.8990 H       1  LIG1        0.0990
     28 C           1.4590   -3.8680   -0.8700 C.ar    1  LIG1       -0.1997
     29 H           1.8090   -4.8040   -0.4370 H       1  LIG1        0.1282
     30 C           0.9620   -3.8470   -2.1730 C.ar    1  LIG1       -0.0117
     31 H           0.9250   -4.7650   -2.7570 H       1  LIG1        0.1109
     32 C           0.5140   -2.6490   -2.7280 C.ar    1  LIG1       -0.2975
     33 H           0.1300   -2.6220   -3.7430 H       1  LIG1        0.1664
     34 C           0.5650   -1.4790   -1.9740 C.ar    1  LIG1        0.3814
     35 F           0.1420   -0.3360   -2.5380 F       1  LIG1       -0.2470
     36 C          -1.2710    0.3070    0.1090 C.ar    1  LIG1        0.1280
     37 H          -1.4600   -0.7650    0.1530 H       1  LIG1        0.0692
     38 C          -2.3640    1.1630   -0.0180 C.ar    1  LIG1       -0.4559
     39 C          -2.1710    2.5330   -0.0980 C.ar    1  LIG1        0.2109
     40 H          -3.0170    3.2090   -0.2000 H       1  LIG1        0.0569
     41 C          -0.8780    3.0510   -0.0300 C.ar    1  LIG1       -0.2735
     42 H          -0.7770    4.1350   -0.0540 H       1  LIG1        0.1458
     43 CL         -3.9570    0.5150   -0.0900 Cl      1  LIG1        0.0925
@<TRIPOS>BOND
     1     1     2   ar
     2     2     3    1
     3     3     4    2
     4     4     5    1
     5     4     6    1
     6     6     7    1
     7     6     8    1
     8     6     9    1
     9     9    10   ar
    10    10     1    1
    11    10    11   ar
    12    11    12    1
    13    11    13   ar
    14    13    14   ar
    15    14     9   ar
    16    14    15    1
    17    15    16    2
    18    15    17    1
    19    17    18    1
    20    18    19    1
    21    18    20    1
    22    18    21    1
    23    21    22    1
    24    21    23    1
    25    21    24    1
    26     3    25    1
    27    25    26   ar
    28    26    27    1
    29    26    28   ar
    30    28    29    1
    31    28    30   ar
    32    30    31    1
    33    30    32   ar
    34    32    33    1
    35    32    34   ar
    36    34    25   ar
    37    34    35    1
    38     2    36   ar
    39    36    37    1
    40    36    38   ar
    41    38    39   ar
    42    39    40    1
    43    39    41   ar
    44    41    42    1
    45    41     1   ar
    46    38    43    1
