@<TRIPOS>MOLECULE
65
 49 52 0 0 0
SMALL
USER_CHARGES
****
From 3DB ct
@<TRIPOS>ATOM
      1 C           0.2630    2.1060    0.0180 C.ar    1  LIG1        0.1162
      2 C          -0.0020    0.7500    0.2740 C.ar    1  LIG1       -0.0003
      3 C           1.0700   -0.2710    0.2560 C.2     1  LIG1        0.4421
      4 N           2.2140   -0.0570    0.9750 N.am    1  LIG1       -0.3324
      5 C           2.5250    1.0910    1.8210 C.3     1  LIG1        0.1965
      6 H           1.7260    1.1980    2.5640 H       1  LIG1        0.0515
      7 C           2.6000    2.3040    0.9510 C.ar    1  LIG1       -0.1456
      8 N           1.5700    2.6550    0.0820 N.ar    1  LIG1       -0.0965
      9 C           2.0020    3.7560   -0.6170 C.ar    1  LIG1        0.0977
     10 H           1.4400    4.1910   -1.4330 H       1  LIG1        0.1748
     11 N           3.1470    4.2090   -0.1780 N.ar    1  LIG1       -0.3646
     12 C           3.5030    3.3680    0.8610 C.ar    1  LIG1        0.0548
     13 C           4.6470    3.6830    1.7250 C.2     1  LIG1        0.6640
     14 O           5.3390    4.6830    1.5830 O.2     1  LIG1       -0.4408
     15 O           4.8560    2.7190    2.6630 O.3     1  LIG1       -0.5276
     16 C           5.9690    2.8050    3.5850 C.3     1  LIG1        0.5764
     17 C           7.3100    2.7580    2.8420 C.3     1  LIG1       -0.3271
     18 H           8.1490    2.6690    3.5400 H       1  LIG1        0.0786
     19 H           7.4770    3.6580    2.2430 H       1  LIG1        0.0978
     20 H           7.3390    1.9100    2.1490 H       1  LIG1        0.0632
     21 C           5.8510    1.5470    4.4590 C.3     1  LIG1       -0.3144
     22 H           6.6540    1.4890    5.2000 H       1  LIG1        0.0801
     23 H           5.8810    0.6400    3.8430 H       1  LIG1        0.0765
     24 H           4.8910    1.5290    4.9870 H       1  LIG1        0.0772
     25 C           5.8590    4.0390    4.4870 C.3     1  LIG1       -0.3171
     26 H           6.6020    4.0130    5.2910 H       1  LIG1        0.0697
     27 H           4.8600    4.1050    4.9350 H       1  LIG1        0.0772
     28 H           6.0140    4.9680    3.9300 H       1  LIG1        0.0945
     29 C           3.8350    0.6660    2.5020 C.3     1  LIG1       -0.0289
     30 H           3.9260    1.0660    3.5170 H       1  LIG1        0.0441
     31 H           4.7170    0.9650    1.9240 H       1  LIG1        0.0625
     32 C           3.7790   -0.8540    2.5100 C.3     1  LIG1       -0.1723
     33 H           4.7600   -1.3190    2.6360 H       1  LIG1        0.0715
     34 H           3.1220   -1.2000    3.3180 H       1  LIG1        0.0685
     35 C           3.1580   -1.1460    1.1620 C.3     1  LIG1        0.0625
     36 H           3.8990   -1.0860    0.3560 H       1  LIG1        0.0408
     37 H           2.6700   -2.1250    1.1280 H       1  LIG1        0.0712
     38 O           0.8780   -1.2820   -0.4140 O.2     1  LIG1       -0.4045
     39 C          -1.3390    0.2960    0.3500 C.ar    1  LIG1       -0.3061
     40 C          -2.3880    1.1970    0.0900 C.ar    1  LIG1       -0.0089
     41 H          -3.4240    0.8580    0.1290 H       1  LIG1        0.1219
     42 C          -2.1220    2.5250   -0.2220 C.ar    1  LIG1       -0.0809
     43 H          -2.9430    3.2130   -0.4160 H       1  LIG1        0.1257
     44 C          -0.8070    2.9810   -0.2510 C.ar    1  LIG1       -0.1295
     45 H          -0.6490    4.0420   -0.4400 H       1  LIG1        0.1307
     46 C          -1.6850   -1.1330    0.7110 C.3     1  LIG1        1.0652
     47 F          -2.9260   -1.2130    1.2850 F       1  LIG1       -0.3382
     48 F          -1.7360   -1.9720   -0.3550 F       1  LIG1       -0.3036
     49 F          -0.8520   -1.6860    1.6340 F       1  LIG1       -0.3137
@<TRIPOS>BOND
     1     1     2   ar
     2     2     3    1
     3     3     4   am
     4     4     5    1
     5     5     6    1
     6     5     7    1
     7     7     8   ar
     8     8     1    1
     9     8     9   ar
    10     9    10    1
    11     9    11   ar
    12    11    12   ar
    13    12     7   ar
    14    12    13    1
    15    13    14    2
    16    13    15    1
    17    15    16    1
    18    16    17    1
    19    17    18    1
    20    17    19    1
    21    17    20    1
    22    16    21    1
    23    21    22    1
    24    21    23    1
    25    21    24    1
    26    16    25    1
    27    25    26    1
    28    25    27    1
    29    25    28    1
    30     5    29    1
    31    29    30    1
    32    29    31    1
    33    29    32    1
    34    32    33    1
    35    32    34    1
    36    32    35    1
    37    35    36    1
    38    35    37    1
    39    35     4    1
    40     3    38    2
    41     2    39   ar
    42    39    40   ar
    43    40    41    1
    44    40    42   ar
    45    42    43    1
    46    42    44   ar
    47    44    45    1
    48    44     1   ar
    49    39    46    1
    50    46    47    1
    51    46    48    1
    52    46    49    1
