@<TRIPOS>MOLECULE
70
 46 49 0 0 0
SMALL
USER_CHARGES
****
From 3DB ct
@<TRIPOS>ATOM
      1 C           0.2650    2.0960    0.0110 C.ar    1  LIG1        0.0020
      2 C          -0.0050    0.7430    0.2700 C.ar    1  LIG1        0.2588
      3 C           1.0670   -0.2780    0.2460 C.2     1  LIG1        0.3513
      4 N           2.2040   -0.0670    0.9850 N.am    1  LIG1       -0.3243
      5 C           2.5220    1.0850    1.8240 C.3     1  LIG1        0.0231
      6 H           1.7250    1.1980    2.5680 H       1  LIG1        0.0711
      7 C           2.6020    2.2950    0.9480 C.ar    1  LIG1       -0.0048
      8 N           1.5760    2.6380    0.0700 N.ar    1  LIG1       -0.1358
      9 C           2.0110    3.7320   -0.6380 C.ar    1  LIG1        0.1367
     10 H           1.4550    4.1560   -1.4640 H       1  LIG1        0.1682
     11 N           3.1480    4.1950   -0.1900 N.ar    1  LIG1       -0.3778
     12 C           3.5000    3.3660    0.8610 C.ar    1  LIG1       -0.0203
     13 C           4.6320    3.7040    1.7330 C.2     1  LIG1        0.7202
     14 O           5.3190    4.7100    1.5950 O.2     1  LIG1       -0.4433
     15 O           4.8590    2.7480    2.6810 O.3     1  LIG1       -0.5323
     16 C           6.0060    2.9380    3.5320 C.3     1  LIG1        0.2914
     17 H           6.1510    4.0040    3.7410 H       1  LIG1        0.0493
     18 C           5.7010    2.2160    4.8510 C.3     1  LIG1       -0.0420
     19 H           5.5300    1.1480    4.6640 H       1  LIG1        0.0438
     20 H           4.7530    2.5980    5.2500 H       1  LIG1        0.0316
     21 C           6.7830    2.3830    5.9070 C.3     1  LIG1       -0.1446
     22 H           7.7130    1.8870    5.6120 H       1  LIG1        0.0418
     23 H           6.9970    3.4420    6.0870 H       1  LIG1        0.0385
     24 H           6.4570    1.9380    6.8520 H       1  LIG1        0.0419
     25 C           7.2340    2.3690    2.8260 C.3     1  LIG1       -0.2875
     26 H           7.3780    2.8440    1.8500 H       1  LIG1        0.0784
     27 H           8.1450    2.5200    3.4120 H       1  LIG1        0.0804
     28 H           7.1120    1.2970    2.6360 H       1  LIG1        0.0684
     29 C           3.8340    0.6600    2.5020 C.3     1  LIG1        0.0726
     30 H           3.9280    1.0600    3.5150 H       1  LIG1        0.0509
     31 H           4.7140    0.9580    1.9210 H       1  LIG1        0.0481
     32 C           3.7750   -0.8610    2.5130 C.3     1  LIG1       -0.2569
     33 H           4.7560   -1.3270    2.6370 H       1  LIG1        0.0796
     34 H           3.1200   -1.2040    3.3220 H       1  LIG1        0.0817
     35 C           3.1510   -1.1540    1.1660 C.3     1  LIG1        0.1519
     36 H           3.8890   -1.0920    0.3580 H       1  LIG1        0.0233
     37 H           2.6650   -2.1330    1.1340 H       1  LIG1        0.0510
     38 O           0.9170   -1.2730   -0.4580 O.2     1  LIG1       -0.3984
     39 C          -1.3450    0.3170    0.3520 C.ar    1  LIG1       -0.4290
     40 C          -2.3930    1.2150    0.1230 C.ar    1  LIG1        0.1425
     41 H          -3.4270    0.8820    0.1880 H       1  LIG1        0.0600
     42 C          -2.1210    2.5400   -0.1960 C.ar    1  LIG1       -0.1512
     43 H          -2.9390    3.2350   -0.3750 H       1  LIG1        0.1340
     44 C          -0.8000    2.9830   -0.2480 C.ar    1  LIG1       -0.0929
     45 H          -0.6340    4.0420   -0.4380 H       1  LIG1        0.1208
     46 CL         -1.8020   -1.2920    0.8070 Cl      1  LIG1        0.1279
@<TRIPOS>BOND
     1     1     2   ar
     2     2     3    1
     3     3     4   am
     4     4     5    1
     5     5     6    1
     6     5     7    1
     7     7     8   ar
     8     8     1    1
     9     8     9   ar
    10     9    10    1
    11     9    11   ar
    12    11    12   ar
    13    12     7   ar
    14    12    13    1
    15    13    14    2
    16    13    15    1
    17    15    16    1
    18    16    17    1
    19    16    18    1
    20    18    19    1
    21    18    20    1
    22    18    21    1
    23    21    22    1
    24    21    23    1
    25    21    24    1
    26    16    25    1
    27    25    26    1
    28    25    27    1
    29    25    28    1
    30     5    29    1
    31    29    30    1
    32    29    31    1
    33    29    32    1
    34    32    33    1
    35    32    34    1
    36    32    35    1
    37    35    36    1
    38    35    37    1
    39    35     4    1
    40     3    38    2
    41     2    39   ar
    42    39    40   ar
    43    40    41    1
    44    40    42   ar
    45    42    43    1
    46    42    44   ar
    47    44    45    1
    48    44     1   ar
    49    39    46    1
