@<TRIPOS>MOLECULE
73
 44 48 0 0 0
SMALL
USER_CHARGES
****
From 3DB ct
@<TRIPOS>ATOM
      1 C           0.2490    2.1060    0.0320 C.ar    1  LIG1        0.0004
      2 C          -0.0010    0.7410    0.2480 C.ar    1  LIG1        0.2574
      3 C           1.0910   -0.2590    0.2250 C.2     1  LIG1        0.3438
      4 N           2.2000   -0.0510    1.0060 N.am    1  LIG1       -0.3078
      5 C           2.4940    1.1020    1.8490 C.3     1  LIG1        0.0262
      6 H           1.6810    1.2130    2.5770 H       1  LIG1        0.0752
      7 C           2.5820    2.3070    0.9680 C.ar    1  LIG1       -0.0751
      8 N           1.5520    2.6600    0.1010 N.ar    1  LIG1       -0.0759
      9 C           1.9830    3.7580   -0.6030 C.ar    1  LIG1        0.0849
     10 H           1.4120    4.1990   -1.4100 H       1  LIG1        0.1811
     11 N           3.1450    4.1910   -0.1890 N.ar    1  LIG1       -0.3625
     12 C           3.5070    3.3490    0.8460 C.ar    1  LIG1        0.0363
     13 C           4.6880    3.6430    1.6630 C.2     1  LIG1        0.6324
     14 O           5.4050    4.6210    1.4860 O.2     1  LIG1       -0.4099
     15 O           4.8900    2.6490    2.6230 O.3     1  LIG1       -0.4216
     16 C           5.9310    2.6360    3.5770 C.ar    1  LIG1        0.2653
     17 C           6.6330    3.7630    3.9930 C.ar    1  LIG1       -0.1980
     18 H           6.4290    4.7490    3.5920 H       1  LIG1        0.1525
     19 C           7.6270    3.6280    4.9660 C.ar    1  LIG1       -0.0720
     20 H           8.1850    4.5030    5.2910 H       1  LIG1        0.1082
     21 C           7.9010    2.3780    5.5250 C.ar    1  LIG1       -0.1184
     22 H           8.6710    2.2820    6.2850 H       1  LIG1        0.1094
     23 C           7.1810    1.2570    5.1140 C.ar    1  LIG1       -0.0878
     24 H           7.3860    0.2850    5.5530 H       1  LIG1        0.1124
     25 C           6.1930    1.3850    4.1400 C.ar    1  LIG1       -0.1686
     26 H           5.6270    0.5140    3.8210 H       1  LIG1        0.1104
     27 C           3.7950    0.6860    2.5530 C.3     1  LIG1        0.0747
     28 H           3.8740    1.0980    3.5630 H       1  LIG1        0.0457
     29 H           4.6840    0.9780    1.9820 H       1  LIG1        0.0427
     30 C           3.7410   -0.8340    2.5670 C.3     1  LIG1       -0.2437
     31 H           4.7210   -1.2980    2.7150 H       1  LIG1        0.0809
     32 H           3.0680   -1.1780    3.3620 H       1  LIG1        0.0769
     33 C           3.1510   -1.1310    1.2060 C.3     1  LIG1        0.1271
     34 H           3.9050   -1.0620    0.4150 H       1  LIG1        0.0299
     35 H           2.6710   -2.1140    1.1610 H       1  LIG1        0.0560
     36 O           0.9870   -1.2340   -0.5130 O.2     1  LIG1       -0.3945
     37 C          -1.3340    0.2900    0.2970 C.ar    1  LIG1       -0.4297
     38 C          -2.3920    1.1810    0.0890 C.ar    1  LIG1        0.1227
     39 H          -3.4210    0.8310    0.1320 H       1  LIG1        0.0661
     40 C          -2.1380    2.5220   -0.1790 C.ar    1  LIG1       -0.1255
     41 H          -2.9640    3.2110   -0.3440 H       1  LIG1        0.1286
     42 C          -0.8250    2.9860   -0.2060 C.ar    1  LIG1       -0.1101
     43 H          -0.6720    4.0530   -0.3650 H       1  LIG1        0.1224
     44 CL         -1.7730   -1.3430    0.6750 Cl      1  LIG1        0.1316
@<TRIPOS>BOND
     1     1     2   ar
     2     2     3    1
     3     3     4   am
     4     4     5    1
     5     5     6    1
     6     5     7    1
     7     7     8   ar
     8     8     1    1
     9     8     9   ar
    10     9    10    1
    11     9    11   ar
    12    11    12   ar
    13    12     7   ar
    14    12    13    1
    15    13    14    2
    16    13    15    1
    17    15    16    1
    18    16    17   ar
    19    17    18    1
    20    17    19   ar
    21    19    20    1
    22    19    21   ar
    23    21    22    1
    24    21    23   ar
    25    23    24    1
    26    23    25   ar
    27    25    26    1
    28    25    16   ar
    29     5    27    1
    30    27    28    1
    31    27    29    1
    32    27    30    1
    33    30    31    1
    34    30    32    1
    35    30    33    1
    36    33    34    1
    37    33    35    1
    38    33     4    1
    39     3    36    2
    40     2    37   ar
    41    37    38   ar
    42    38    39    1
    43    38    40   ar
    44    40    41    1
    45    40    42   ar
    46    42    43    1
    47    42     1   ar
    48    37    44    1
