@<TRIPOS>MOLECULE
75
 32 35 0 0 0
SMALL
USER_CHARGES
****
From 3DB ct
@<TRIPOS>ATOM
      1 C           0.1810    2.0610    0.1640 C.ar    1  LIG1       -0.2642
      2 C           0.0910    0.6760    0.1600 C.ar    1  LIG1        0.3742
      3 C           1.2240   -0.2610    0.1860 C.2     1  LIG1       -0.0154
      4 N           2.3310   -0.0760    0.8230 N.2     1  LIG1       -0.3904
      5 C           2.4840    1.0670    1.7170 C.3     1  LIG1        0.2314
      6 H           3.4460    0.9600    2.2320 H       1  LIG1        0.0353
      7 H           1.7220    1.0510    2.5060 H       1  LIG1        0.0049
      8 C           2.4740    2.3630    0.9950 C.ar    1  LIG1        0.1525
      9 N           1.3460    2.8200    0.3350 N.ar    1  LIG1       -0.1607
     10 C           1.6920    4.1170   -0.0370 C.ar    1  LIG1        0.3538
     11 N           2.9310    4.3750    0.3460 N.ar    1  LIG1       -0.2451
     12 N           3.4210    3.2780    0.9890 N.ar    1  LIG1       -0.2249
     13 C           0.8600    5.0550   -0.8300 C.3     1  LIG1       -0.3411
     14 H           1.4720    5.8970   -1.1740 H       1  LIG1        0.1146
     15 H           0.0510    5.4720   -0.2250 H       1  LIG1        0.1075
     16 H           0.4500    4.5730   -1.7220 H       1  LIG1        0.1277
     17 C           1.0870   -1.4930   -0.6270 C.ar    1  LIG1        0.3894
     18 C           1.5770   -2.6950   -0.0960 C.ar    1  LIG1       -0.3257
     19 H           2.0480   -2.7180    0.8850 H       1  LIG1        0.1818
     20 C           1.4540   -3.8760   -0.8270 C.ar    1  LIG1        0.0154
     21 H           1.8330   -4.8120   -0.4180 H       1  LIG1        0.0958
     22 C           0.8440   -3.8610   -2.0810 C.ar    1  LIG1       -0.1803
     23 H           0.7490   -4.7830   -2.6510 H       1  LIG1        0.1212
     24 C           0.3550   -2.6630   -2.6100 C.ar    1  LIG1        0.1201
     25 H          -0.1130   -2.6670   -3.5920 H       1  LIG1        0.0654
     26 C           0.4730   -1.4740   -1.8840 C.ar    1  LIG1       -0.4376
     27 CL         -0.1130   -0.0190   -2.6080 Cl      1  LIG1        0.0792
     28 C          -1.2920    0.2840    0.0220 C.ar    1  LIG1       -0.3872
     29 H          -1.6420   -0.7420   -0.0120 H       1  LIG1        0.2093
     30 C          -2.1510    1.3550   -0.0780 C.ar    1  LIG1       -0.2206
     31 H          -3.2280    1.3300   -0.1910 H       1  LIG1        0.1945
     32 S          -1.3150    2.8370   -0.0250 S.2     1  LIG1        0.2191
@<TRIPOS>BOND
     1     1     2   ar
     2     2     3    1
     3     3     4    2
     4     4     5    1
     5     5     6    1
     6     5     7    1
     7     5     8    1
     8     8     9   ar
     9     9     1    1
    10     9    10   ar
    11    10    11   ar
    12    11    12   ar
    13    12     8   ar
    14    10    13    1
    15    13    14    1
    16    13    15    1
    17    13    16    1
    18     3    17    1
    19    17    18   ar
    20    18    19    1
    21    18    20   ar
    22    20    21    1
    23    20    22   ar
    24    22    23    1
    25    22    24   ar
    26    24    25    1
    27    24    26   ar
    28    26    17   ar
    29    26    27    1
    30     2    28   ar
    31    28    29    1
    32    28    30   ar
    33    30    31    1
    34    30    32   ar
    35    32     1   ar
