@<TRIPOS>MOLECULE
77
 35 37 0 0 0
SMALL
USER_CHARGES
****
From 3DB ct
@<TRIPOS>ATOM
      1 C          -2.1280    2.4720   -0.1850 C.ar    1  LIG1       -0.3639
      2 H          -2.9580    3.1560   -0.3510 H       1  LIG1        0.1543
      3 C          -2.3670    1.1190    0.0270 C.ar    1  LIG1        0.5525
      4 C          -1.2720    0.2730    0.1810 C.ar    1  LIG1       -0.4438
      5 H          -1.4500   -0.7950    0.3000 H       1  LIG1        0.1734
      6 C           0.0480    0.7710    0.1830 C.ar    1  LIG1        0.1125
      7 C           0.2900    2.1540    0.0490 C.ar    1  LIG1       -0.0893
      8 C          -0.8240    2.9830   -0.1670 C.ar    1  LIG1        0.0048
      9 H          -0.7160    4.0590   -0.2920 H       1  LIG1        0.1072
     10 N           1.5970    2.7430    0.1070 N.am    1  LIG1       -0.2288
     11 C           2.6430    2.2440    0.8880 C.2     1  LIG1        0.4355
     12 C           2.3170    1.0740    1.8060 C.3     1  LIG1        0.0501
     13 H           3.1510    0.9460    2.5050 H       1  LIG1        0.0654
     14 H           1.4290    1.2720    2.4160 H       1  LIG1        0.0284
     15 N           2.2030   -0.1370    0.9920 N.2     1  LIG1       -0.4094
     16 C           1.1500   -0.2390    0.2470 C.2     1  LIG1        0.3662
     17 C           1.0440   -1.4440   -0.6240 C.ar    1  LIG1       -0.2266
     18 C           1.4210   -2.7020   -0.1330 C.ar    1  LIG1       -0.0504
     19 H           1.7940   -2.8190    0.8820 H       1  LIG1        0.1287
     20 C           1.3040   -3.8290   -0.9500 C.ar    1  LIG1       -0.1237
     21 H           1.5950   -4.8070   -0.5710 H       1  LIG1        0.1097
     22 C           0.8110   -3.7060   -2.2510 C.ar    1  LIG1       -0.0539
     23 H           0.7220   -4.5860   -2.8850 H       1  LIG1        0.1103
     24 C           0.4310   -2.4540   -2.7380 C.ar    1  LIG1       -0.2335
     25 H           0.0500   -2.3510   -3.7500 H       1  LIG1        0.1441
     26 C           0.5460   -1.3310   -1.9230 C.ar    1  LIG1        0.3621
     27 F           0.1980   -0.1370   -2.4280 F       1  LIG1       -0.2456
     28 O           3.7770    2.7390    0.8860 O.2     1  LIG1       -0.4057
     29 C           1.8340    3.9860   -0.6250 C.3     1  LIG1       -0.0839
     30 H           2.9030    4.1450   -0.7990 H       1  LIG1        0.0902
     31 H           1.4600    4.8260   -0.0320 H       1  LIG1        0.0457
     32 H           1.3400    3.9520   -1.6010 H       1  LIG1        0.0748
     33 N          -3.6490    0.6110   -0.0420 N.pl3   1  LIG1       -0.8893
     34 H          -3.8420   -0.3470    0.2410 H       1  LIG1        0.3666
     35 H          -4.4520    1.2360   -0.0250 H       1  LIG1        0.3653
@<TRIPOS>BOND
     1     2     1    1
     2     1     3   ar
     3     3     4   ar
     4     4     5    1
     5     4     6   ar
     6     6     7   ar
     7     7     8   ar
     8     8     9    1
     9     8     1   ar
    10     7    10    1
    11    10    11   am
    12    11    12    1
    13    12    13    1
    14    12    14    1
    15    12    15    1
    16    15    16    2
    17    16     6    1
    18    16    17    1
    19    17    18   ar
    20    18    19    1
    21    18    20   ar
    22    20    21    1
    23    20    22   ar
    24    22    23    1
    25    22    24   ar
    26    24    25    1
    27    24    26   ar
    28    26    17   ar
    29    26    27    1
    30    11    28    2
    31    10    29    1
    32    29    30    1
    33    29    31    1
    34    29    32    1
    35     3    33    1
    36    33    34    1
    37    33    35    1
