@<TRIPOS>MOLECULE
86
 39 42 0 0 0
SMALL
USER_CHARGES
****
From 3DB ct
@<TRIPOS>ATOM
      1 C           0.2540    2.1670    0.0670 C.ar    1  LIG1        0.1196
      2 C           0.0450    0.7790    0.2020 C.ar    1  LIG1       -0.0206
      3 C           1.1670   -0.2230    0.2270 C.2     1  LIG1        0.2930
      4 N           2.2490   -0.1220    0.9290 N.2     1  LIG1       -0.3763
      5 C           2.4310    1.0430    1.7810 C.3     1  LIG1        0.0815
      6 H           3.3120    0.8740    2.4050 H       1  LIG1        0.0843
      7 H           1.5960    1.1620    2.4830 H       1  LIG1        0.0467
      8 C           2.5980    2.2400    0.9270 C.ar    1  LIG1       -0.1563
      9 N           1.5480    2.7360    0.1800 N.ar    1  LIG1       -0.0434
     10 C           1.9930    3.9170   -0.3690 C.ar    1  LIG1        0.0809
     11 H           1.3660    4.5420   -0.9930 H       1  LIG1        0.1813
     12 N           3.2560    4.1560   -0.0900 N.ar    1  LIG1       -0.3745
     13 C           3.6640    3.1070    0.7230 C.ar    1  LIG1        0.0710
     14 C           5.0200    3.0070    1.2760 C.2     1  LIG1        0.5904
     15 O           5.9120    3.8280    1.0770 O.2     1  LIG1       -0.4125
     16 O           5.1780    1.8850    2.0450 O.3     1  LIG1       -0.2960
     17 C           6.4820    1.7340    2.6130 C.3     1  LIG1       -0.0413
     18 H           6.4890    0.8140    3.2020 H       1  LIG1        0.0774
     19 H           6.7090    2.5740    3.2770 H       1  LIG1        0.0597
     20 H           7.2340    1.6480    1.8230 H       1  LIG1        0.0681
     21 C           1.0460   -1.4350   -0.6380 C.ar    1  LIG1       -0.1531
     22 C           1.4820   -2.6720   -0.1490 C.ar    1  LIG1       -0.0778
     23 H           1.8950   -2.7550    0.8550 H       1  LIG1        0.1382
     24 C           1.3800   -3.8130   -0.9480 C.ar    1  LIG1       -0.1223
     25 H           1.7130   -4.7770   -0.5650 H       1  LIG1        0.1126
     26 C           0.8540   -3.7210   -2.2380 C.ar    1  LIG1       -0.0395
     27 H           0.7770   -4.6120   -2.8600 H       1  LIG1        0.1125
     28 C           0.4350   -2.4870   -2.7350 C.ar    1  LIG1       -0.2584
     29 H           0.0360   -2.4060   -3.7420 H       1  LIG1        0.1564
     30 C           0.5370   -1.3500   -1.9370 C.ar    1  LIG1        0.3529
     31 F           0.1550   -0.1710   -2.4510 F       1  LIG1       -0.2533
     32 C          -1.2680    0.2760    0.1960 C.ar    1  LIG1        0.0966
     33 H          -1.4550   -0.7870    0.3260 H       1  LIG1        0.0758
     34 C          -2.3490    1.1350    0.0040 C.ar    1  LIG1       -0.4109
     35 C          -2.1420    2.4970   -0.1860 C.ar    1  LIG1        0.2014
     36 H          -2.9830    3.1680   -0.3420 H       1  LIG1        0.0594
     37 C          -0.8450    3.0150   -0.1570 C.ar    1  LIG1       -0.2585
     38 H          -0.7290    4.0920   -0.2640 H       1  LIG1        0.1448
     39 CL         -3.9500    0.5020   -0.0170 Cl      1  LIG1        0.0904
@<TRIPOS>BOND
     1     1     2   ar
     2     2     3    1
     3     3     4    2
     4     4     5    1
     5     5     6    1
     6     5     7    1
     7     5     8    1
     8     8     9   ar
     9     9     1    1
    10     9    10   ar
    11    10    11    1
    12    10    12   ar
    13    12    13   ar
    14    13     8   ar
    15    13    14    1
    16    14    15    2
    17    14    16    1
    18    16    17    1
    19    17    18    1
    20    17    19    1
    21    17    20    1
    22     3    21    1
    23    21    22   ar
    24    22    23    1
    25    22    24   ar
    26    24    25    1
    27    24    26   ar
    28    26    27    1
    29    26    28   ar
    30    28    29    1
    31    28    30   ar
    32    30    21   ar
    33    30    31    1
    34     2    32   ar
    35    32    33    1
    36    32    34   ar
    37    34    35   ar
    38    35    36    1
    39    35    37   ar
    40    37    38    1
    41    37     1   ar
    42    34    39    1
