@<TRIPOS>MOLECULE
88
 32 35 0 0 0
SMALL
USER_CHARGES
****
From 3DB ct
@<TRIPOS>ATOM
      1 C           0.0370    2.1550   -0.0350 C.ar    1  LIG1       -0.0273
      2 C          -0.1060    0.7580    0.1110 C.ar    1  LIG1        0.0184
      3 C           1.0660   -0.1940    0.1660 C.2     1  LIG1        0.2136
      4 N           2.1540   -0.0510    0.8540 N.2     1  LIG1       -0.4457
      5 C           2.3920    1.1320    1.6860 C.3     1  LIG1        0.2501
      6 H           3.3550    1.0050    2.1930 H       1  LIG1        0.0409
      7 H           1.6310    1.2100    2.4720 H       1  LIG1       -0.0171
      8 C           2.4170    2.3540    0.8440 C.ar    1  LIG1        0.0145
      9 C           1.3370    2.7990    0.0530 C.ar    1  LIG1        0.0750
     10 N           1.6840    3.9410   -0.5600 N.ar    1  LIG1       -0.2211
     11 N           2.9580    4.1140   -0.1320 N.ar    1  LIG1       -0.0725
     12 H           3.5170    4.9110   -0.4380 H       1  LIG1        0.3254
     13 N           3.4580    3.1910    0.7250 N.ar    1  LIG1       -0.2235
     14 C           0.9800   -1.4370   -0.6730 C.ar    1  LIG1        0.0897
     15 C           0.4830   -1.3900   -1.9820 C.ar    1  LIG1       -0.1958
     16 H           0.1510   -0.4540   -2.4250 H       1  LIG1        0.1235
     17 C           0.4220   -2.5570   -2.7450 C.ar    1  LIG1       -0.0649
     18 H           0.0330   -2.5220   -3.7620 H       1  LIG1        0.0992
     19 C           0.8640   -3.7680   -2.2110 C.ar    1  LIG1       -0.1186
     20 H           0.8150   -4.6760   -2.8090 H       1  LIG1        0.1050
     21 C           1.3730   -3.8150   -0.9130 C.ar    1  LIG1       -0.0605
     22 H           1.7230   -4.7590   -0.4990 H       1  LIG1        0.0970
     23 C           1.4370   -2.6510   -0.1450 C.ar    1  LIG1       -0.1672
     24 H           1.8370   -2.6980    0.8660 H       1  LIG1        0.1351
     25 C          -1.3960    0.1980    0.1510 C.ar    1  LIG1        0.0731
     26 H          -1.5300   -0.8720    0.2910 H       1  LIG1        0.0712
     27 C          -2.5220    1.0080    0.0040 C.ar    1  LIG1       -0.3705
     28 C          -2.3840    2.3790   -0.1790 C.ar    1  LIG1        0.1034
     29 H          -3.2600    3.0140   -0.2970 H       1  LIG1        0.0682
     30 C          -1.1110    2.9510   -0.1940 C.ar    1  LIG1       -0.1243
     31 H          -1.0220    4.0310   -0.3090 H       1  LIG1        0.1278
     32 CL         -4.0920    0.3030    0.0420 Cl      1  LIG1        0.0778
@<TRIPOS>BOND
     1     1     2   ar
     2     2     3    1
     3     3     4    2
     4     4     5    1
     5     5     6    1
     6     5     7    1
     7     5     8    1
     8     8     9   ar
     9     9     1    1
    10     9    10   ar
    11    10    11   ar
    12    11    12    1
    13    11    13   ar
    14    13     8   ar
    15     3    14    1
    16    14    15   ar
    17    15    16    1
    18    15    17   ar
    19    17    18    1
    20    17    19   ar
    21    19    20    1
    22    19    21   ar
    23    21    22    1
    24    21    23   ar
    25    23    24    1
    26    23    14   ar
    27     2    25   ar
    28    25    26    1
    29    25    27   ar
    30    27    28   ar
    31    28    29    1
    32    28    30   ar
    33    30    31    1
    34    30     1   ar
    35    27    32    1
