@<TRIPOS>MOLECULE
90
 37 40 0 0 0
SMALL
USER_CHARGES
****
From 3DB ct
@<TRIPOS>ATOM
      1 C           0.2780    2.1690    0.0400 C.ar    1  LIG1       -0.1369
      2 C           0.0320    0.7800    0.1330 C.ar    1  LIG1        0.1212
      3 C           1.1420   -0.2320    0.2110 C.2     1  LIG1        0.1146
      4 N           2.1890   -0.1350    0.9670 N.2     1  LIG1       -0.3707
      5 C           2.3680    1.0570    1.7940 C.3     1  LIG1        0.1568
      6 H           3.2310    0.8820    2.4490 H       1  LIG1        0.0447
      7 H           1.5180    1.2110    2.4720 H       1  LIG1        0.0194
      8 C           2.6090    2.2640    0.9490 C.ar    1  LIG1       -0.4279
      9 C           1.6300    2.7600    0.1070 C.ar    1  LIG1        0.4793
     10 N           1.8370    3.8510   -0.6720 N.ar    1  LIG1       -0.5899
     11 C           3.0480    4.4350   -0.6180 C.ar    1  LIG1        0.6620
     12 N           4.0540    4.0230    0.1730 N.ar    1  LIG1       -0.5874
     13 C           3.8110    2.9380    0.9380 C.ar    1  LIG1        0.3462
     14 H           4.6420    2.6170    1.5620 H       1  LIG1        0.0963
     15 C           3.2720    5.6540   -1.4570 C.3     1  LIG1       -0.2889
     16 H           2.6840    5.6000   -2.3780 H       1  LIG1        0.0864
     17 H           4.3280    5.7460   -1.7300 H       1  LIG1        0.0914
     18 H           2.9730    6.5450   -0.8990 H       1  LIG1        0.0888
     19 C           1.0440   -1.4530   -0.6530 C.ar    1  LIG1        0.1141
     20 C           0.5440   -1.3750   -1.9590 C.ar    1  LIG1       -0.1784
     21 H           0.2180   -0.4270   -2.3820 H       1  LIG1        0.1110
     22 C           0.4710   -2.5250   -2.7480 C.ar    1  LIG1       -0.0669
     23 H           0.0800   -2.4650   -3.7620 H       1  LIG1        0.1009
     24 C           0.9040   -3.7500   -2.2410 C.ar    1  LIG1       -0.1273
     25 H           0.8480   -4.6450   -2.8580 H       1  LIG1        0.1099
     26 C           1.4170   -3.8290   -0.9460 C.ar    1  LIG1       -0.0662
     27 H           1.7600   -4.7850   -0.5530 H       1  LIG1        0.1007
     28 C           1.4920   -2.6820   -0.1530 C.ar    1  LIG1       -0.1643
     29 H           1.8950   -2.7550    0.8550 H       1  LIG1        0.1319
     30 C          -1.2880    0.2870    0.1460 C.ar    1  LIG1        0.0564
     31 H          -1.4790   -0.7790    0.2510 H       1  LIG1        0.0713
     32 C          -2.3650    1.1600    0.0250 C.ar    1  LIG1       -0.3820
     33 C          -2.1480    2.5250   -0.1010 C.ar    1  LIG1        0.1228
     34 H          -2.9830    3.2150   -0.1970 H       1  LIG1        0.0631
     35 C          -0.8410    3.0210   -0.0900 C.ar    1  LIG1       -0.1187
     36 H          -0.6990    4.1000   -0.1680 H       1  LIG1        0.1330
     37 CL         -3.9720    0.5440    0.0300 Cl      1  LIG1        0.0834
@<TRIPOS>BOND
     1     1     2   ar
     2     2     3    1
     3     3     4    2
     4     4     5    1
     5     5     6    1
     6     5     7    1
     7     5     8    1
     8     8     9   ar
     9     9     1    1
    10     9    10   ar
    11    10    11   ar
    12    11    12   ar
    13    12    13   ar
    14    13    14    1
    15    13     8   ar
    16    11    15    1
    17    15    16    1
    18    15    17    1
    19    15    18    1
    20     3    19    1
    21    19    20   ar
    22    20    21    1
    23    20    22   ar
    24    22    23    1
    25    22    24   ar
    26    24    25    1
    27    24    26   ar
    28    26    27    1
    29    26    28   ar
    30    28    29    1
    31    28    19   ar
    32     2    30   ar
    33    30    31    1
    34    30    32   ar
    35    32    33   ar
    36    33    34    1
    37    33    35   ar
    38    35    36    1
    39    35     1   ar
    40    32    37    1
