@<TRIPOS>MOLECULE
94
 34 37 0 0 0
SMALL
USER_CHARGES
****
From 3DB ct
@<TRIPOS>ATOM
      1 C           0.2790    2.1580    0.0490 C.ar    1  LIG1       -0.1683
      2 C           0.0480    0.7650    0.1450 C.ar    1  LIG1        0.2714
      3 C           1.1690   -0.2310    0.2420 C.2     1  LIG1       -0.0762
      4 N           2.2390   -0.1130    0.9600 N.2     1  LIG1       -0.3707
      5 C           2.4130    1.0810    1.7830 C.3     1  LIG1        0.2074
      6 H           3.2870    0.9190    2.4250 H       1  LIG1        0.0388
      7 H           1.5710    1.2240    2.4730 H       1  LIG1        0.0127
      8 C           2.6230    2.2910    0.9340 C.ar    1  LIG1       -0.5297
      9 C           1.6230    2.7720    0.1070 C.ar    1  LIG1        0.5743
     10 N           1.8050    3.8660   -0.6750 N.ar    1  LIG1       -0.5849
     11 C           3.0070    4.4610   -0.6200 C.ar    1  LIG1        0.4957
     12 H           3.1550    5.3350   -1.2470 H       1  LIG1        0.0851
     13 N           4.0380    4.0700    0.1430 N.ar    1  LIG1       -0.5931
     14 C           3.8180    2.9820    0.9080 C.ar    1  LIG1        0.4396
     15 H           4.6610    2.6680    1.5210 H       1  LIG1        0.0729
     16 C           1.0580   -1.4590   -0.5960 C.ar    1  LIG1        0.5325
     17 C           1.4680   -2.6750   -0.0320 C.ar    1  LIG1       -0.3734
     18 H           1.8540   -2.7150    0.9850 H       1  LIG1        0.1814
     19 C           1.3720   -3.8530   -0.7730 C.ar    1  LIG1        0.0473
     20 H           1.6880   -4.7990   -0.3360 H       1  LIG1        0.0913
     21 C           0.8670   -3.8200   -2.0720 C.ar    1  LIG1       -0.2246
     22 H           0.7930   -4.7400   -2.6500 H       1  LIG1        0.1311
     23 C           0.4580   -2.6090   -2.6360 C.ar    1  LIG1        0.1558
     24 H           0.0730   -2.5990   -3.6540 H       1  LIG1        0.0636
     25 C           0.5500   -1.4230   -1.9010 C.ar    1  LIG1       -0.5289
     26 CL          0.0780    0.0470   -2.6760 Cl      1  LIG1        0.0924
     27 C          -1.2650    0.2570    0.1220 C.ar    1  LIG1       -0.0251
     28 H          -1.4510   -0.8100    0.2170 H       1  LIG1        0.0871
     29 C          -2.3510    1.1160   -0.0130 C.ar    1  LIG1       -0.3878
     30 C          -2.1510    2.4840   -0.1270 C.ar    1  LIG1        0.1260
     31 H          -2.9930    3.1640   -0.2340 H       1  LIG1        0.0696
     32 C          -0.8510    2.9960   -0.0940 C.ar    1  LIG1       -0.1427
     33 H          -0.7220    4.0760   -0.1720 H       1  LIG1        0.1386
     34 CL         -3.9500    0.4790   -0.0410 Cl      1  LIG1        0.0907
@<TRIPOS>BOND
     1     1     2   ar
     2     2     3    1
     3     3     4    2
     4     4     5    1
     5     5     6    1
     6     5     7    1
     7     5     8    1
     8     8     9   ar
     9     9     1    1
    10     9    10   ar
    11    10    11   ar
    12    11    12    1
    13    11    13   ar
    14    13    14   ar
    15    14    15    1
    16    14     8   ar
    17     3    16    1
    18    16    17   ar
    19    17    18    1
    20    17    19   ar
    21    19    20    1
    22    19    21   ar
    23    21    22    1
    24    21    23   ar
    25    23    24    1
    26    23    25   ar
    27    25    16   ar
    28    25    26    1
    29     2    27   ar
    30    27    28    1
    31    27    29   ar
    32    29    30   ar
    33    30    31    1
    34    30    32   ar
    35    32    33    1
    36    32     1   ar
    37    29    34    1
