@<TRIPOS>MOLECULE
96
 34 36 0 0 0
SMALL
USER_CHARGES
****
From 3DB ct
@<TRIPOS>ATOM
      1 C          -2.1350    2.5070   -0.1530 C.ar    1  LIG1        0.1919
      2 H          -2.9680    3.1930   -0.2920 H       1  LIG1        0.0620
      3 C          -2.3600    1.1510    0.0400 C.ar    1  LIG1       -0.4598
      4 C          -1.2860    0.2850    0.2100 C.ar    1  LIG1        0.1285
      5 H          -1.4770   -0.7770    0.3490 H       1  LIG1        0.0728
      6 C           0.0330    0.7770    0.1860 C.ar    1  LIG1        0.0089
      7 C           0.2820    2.1590    0.0450 C.ar    1  LIG1        0.0899
      8 C          -0.8280    3.0040   -0.1520 C.ar    1  LIG1       -0.2279
      9 H          -0.7080    4.0790   -0.2710 H       1  LIG1        0.1314
     10 N           1.5940    2.7330    0.0900 N.am    1  LIG1       -0.2619
     11 C           2.6380    2.2290    0.8760 C.2     1  LIG1        0.3482
     12 C           2.2900    1.0500    1.8380 C.3     1  LIG1        0.4217
     13 H           1.3710    1.2780    2.3900 H       1  LIG1        0.0157
     14 N           2.1680   -0.1450    1.0160 N.2     1  LIG1       -0.4303
     15 C           1.1320   -0.2350    0.2470 C.2     1  LIG1        0.1134
     16 C           1.0420   -1.4410   -0.6390 C.ar    1  LIG1        0.1437
     17 C           1.4920   -2.6770   -0.1590 C.ar    1  LIG1       -0.1760
     18 H           1.8890   -2.7670    0.8500 H       1  LIG1        0.1402
     19 C           1.4250   -3.8100   -0.9720 C.ar    1  LIG1       -0.0575
     20 H           1.7690   -4.7720   -0.5950 H       1  LIG1        0.1002
     21 C           0.9180   -3.7110   -2.2680 C.ar    1  LIG1       -0.1195
     22 H           0.8670   -4.5950   -2.9010 H       1  LIG1        0.1079
     23 C           0.4830   -2.4790   -2.7550 C.ar    1  LIG1       -0.0616
     24 H           0.0970   -2.4020   -3.7700 H       1  LIG1        0.1006
     25 C           0.5470   -1.3420   -1.9460 C.ar    1  LIG1       -0.2133
     26 H           0.2210   -0.3890   -2.3550 H       1  LIG1        0.1263
     27 O           3.2990    0.8910    2.8310 O.3     1  LIG1       -0.4653
     28 H           4.0680    0.5740    2.3140 H       1  LIG1        0.2974
     29 O           3.7780    2.7140    0.8540 O.2     1  LIG1       -0.3748
     30 C           1.8430    3.9650   -0.6560 C.3     1  LIG1       -0.0530
     31 H           2.9110    4.1020   -0.8480 H       1  LIG1        0.0908
     32 H           1.4930    4.8160   -0.0640 H       1  LIG1        0.0486
     33 H           1.3330    3.9320   -1.6240 H       1  LIG1        0.0676
     34 CL         -3.9680    0.5400    0.0560 Cl      1  LIG1        0.0931
@<TRIPOS>BOND
     1     2     1    1
     2     1     3   ar
     3     3     4   ar
     4     4     5    1
     5     4     6   ar
     6     6     7   ar
     7     7     8   ar
     8     8     9    1
     9     8     1   ar
    10     7    10    1
    11    10    11   am
    12    11    12    1
    13    12    13    1
    14    12    14    1
    15    14    15    2
    16    15     6    1
    17    15    16    1
    18    16    17   ar
    19    17    18    1
    20    17    19   ar
    21    19    20    1
    22    19    21   ar
    23    21    22    1
    24    21    23   ar
    25    23    24    1
    26    23    25   ar
    27    25    26    1
    28    25    16   ar
    29    12    27    1
    30    27    28    1
    31    11    29    2
    32    10    30    1
    33    30    31    1
    34    30    32    1
    35    30    33    1
    36     3    34    1
