@<TRIPOS>MOLECULE
348402
 27 30 0 0 0
SMALL
GASTEIGER
Energy = 0

@<TRIPOS>ATOM
      1 C           5.0320    1.7687    1.0326 C.ar    1  LIG11      -0.0281
      2 C           4.6020    0.5226    1.7131 C.ar    1  LIG11      -0.0435
      3 C           3.9893   -0.4765    1.0653 C.ar    1  LIG11       0.0452
      4 C           3.7621   -0.3035   -0.3753 C.ar    1  LIG11       0.1501
      5 C           4.1744    0.9144   -1.0326 C.ar    1  LIG11       0.1653
      6 C           4.8396    1.9921   -0.2800 C.ar    1  LIG11       0.1569
      7 N           5.2019    3.0825   -0.9087 N.pl3   1  LIG11       0.0587
      8 O           5.7441    3.9408   -0.2444 O.2     1  LIG11      -0.1261
      9 O           5.0062    3.2473   -2.0913 O.2     1  LIG11      -0.1261
     10 N           3.8861    0.8795   -2.2657 N.ar    1  LIG11      -0.0466
     11 O           3.2796   -0.3900   -2.4060 O.2     1  LIG11      -0.2415
     12 N           3.2264   -1.1102   -1.1910 N.ar    1  LIG11      -0.0477
     13 S           3.4705   -1.9513    1.9307 S.3     1  LIG11      -0.0654
     14 C           1.9595   -2.2730    1.0649 C.ar    1  LIG11       0.1323
     15 C           1.0707   -1.2474    0.7586 C.ar    1  LIG11       0.1397
     16 C          -0.1108   -1.4855    0.0757 C.ar    1  LIG11       0.1620
     17 N          -0.7188   -0.2839   -0.0623 N.ar    1  LIG11      -0.3292
     18 C           0.0499    0.6097    0.5028 C.ar    1  LIG11       0.0957
     19 N           1.0918    0.0737    0.9868 N.ar    1  LIG11      -0.2316
     20 N          -0.4325   -2.7354   -0.3028 N.ar    1  LIG11      -0.2163
     21 C           0.4291   -3.7351    0.0003 C.ar    1  LIG11       0.1196
     22 N           1.5885   -3.5118    0.6687 N.ar    1  LIG11      -0.2266
     23 H           5.5198    2.5101    1.6661 H       1  LIG11       0.0641
     24 H           4.7890    0.4213    2.7828 H       1  LIG11       0.0630
     25 H          -1.6203   -0.1167   -0.5294 H       1  LIG11       0.1682
     26 H          -0.1548    1.6800    0.5636 H       1  LIG11       0.1027
     27 H           0.1846   -4.7478   -0.3008 H       1  LIG11       0.1048
@<TRIPOS>BOND
     1    11    10   ar
     2    11    12   ar
     3    10     5   ar
     4     9     7    2
     5    12     4   ar
     6     5     4   ar
     7     5     6   ar
     8     7     6    1
     9     7     8    2
    10    25    17    1
    11     4     3   ar
    12    20    21   ar
    13    20    16   ar
    14    27    21    1
    15     6     1   ar
    16    17    16   ar
    17    17    18   ar
    18    21    22   ar
    19    16    15   ar
    20    18    26    1
    21    18    19   ar
    22    22    14   ar
    23    15    19   ar
    24    15    14   ar
    25     1    23    1
    26     1     2   ar
    27    14    13    1
    28     3     2   ar
    29     3    13    1
    30     2    24    1
