@<TRIPOS>MOLECULE
35866
 32 34 0 0 0
SMALL
GASTEIGER
Energy = 0

@<TRIPOS>ATOM
      1 C           5.8248    3.7137   -1.0295 C.ar    1  LIG11      -0.0617
      2 C           6.6960    3.0309   -0.1762 C.ar    1  LIG11      -0.0615
      3 C           6.2061    2.0347    0.6736 C.ar    1  LIG11      -0.0585
      4 C           4.8427    1.7192    0.6788 C.ar    1  LIG11      -0.0466
      5 C           3.9754    2.4002   -0.1831 C.ar    1  LIG11      -0.0585
      6 C           4.4635    3.3967   -1.0334 C.ar    1  LIG11      -0.0615
      7 C           4.2941    0.6350    1.6157 C.3     1  LIG11      -0.0183
      8 C           4.2289   -0.7127    0.8568 C.3     1  LIG11       0.0037
      9 S           3.4691   -1.9658    1.9445 S.3     1  LIG11      -0.1033
     10 C           1.9577   -2.2749    1.0699 C.ar    1  LIG11       0.1295
     11 C           1.0719   -1.2474    0.7588 C.ar    1  LIG11       0.1395
     12 C          -0.1104   -1.4859    0.0764 C.ar    1  LIG11       0.1638
     13 N          -0.7197   -0.2848   -0.0611 N.ar    1  LIG11      -0.3291
     14 C           0.0494    0.6092    0.5020 C.ar    1  LIG11       0.0957
     15 N           1.0925    0.0737    0.9838 N.ar    1  LIG11      -0.2316
     16 N          -0.4332   -2.7348   -0.3032 N.ar    1  LIG11      -0.1952
     17 C           0.4292   -3.7321    0.0006 C.ar    1  LIG11       0.2155
     18 N           1.5901   -3.5117    0.6654 N.ar    1  LIG11      -0.2061
     19 N           0.1239   -4.9917   -0.3710 N.pl3   1  LIG11      -0.3274
     20 H           6.2047    4.4885   -1.6885 H       1  LIG11       0.0618
     21 H           7.7541    3.2746   -0.1736 H       1  LIG11       0.0618
     22 H           6.8917    1.5065    1.3284 H       1  LIG11       0.0620
     23 H           2.9176    2.1560   -0.1962 H       1  LIG11       0.0620
     24 H           3.7855    3.9244   -1.6971 H       1  LIG11       0.0618
     25 H           3.2917    0.9276    1.9640 H       1  LIG11       0.0321
     26 H           4.9354    0.5316    2.5057 H       1  LIG11       0.0321
     27 H           5.2462   -1.0458    0.5990 H       1  LIG11       0.0383
     28 H           3.6528   -0.6040   -0.0755 H       1  LIG11       0.0383
     29 H          -1.6225   -0.1181   -0.5256 H       1  LIG11       0.1682
     30 H          -0.1557    1.6793    0.5630 H       1  LIG11       0.1027
     31 H          -0.7520   -5.1812   -0.8766 H       1  LIG11       0.1452
     32 H           0.7670   -5.7633   -0.1479 H       1  LIG11       0.1452
@<TRIPOS>BOND
     1    24     6    1
     2    20     1    1
     3     6     1   ar
     4     6     5   ar
     5     1     2   ar
     6    31    19    1
     7    29    13    1
     8    19    32    1
     9    19    17    1
    10    16    17   ar
    11    16    12   ar
    12    23     5    1
    13     5     4   ar
    14     2    21    1
    15     2     3   ar
    16    28     8    1
    17    13    12   ar
    18    13    14   ar
    19    17    18   ar
    20    12    11   ar
    21    14    30    1
    22    14    15   ar
    23    27     8    1
    24    18    10   ar
    25     3     4   ar
    26     3    22    1
    27     4     7    1
    28    11    15   ar
    29    11    10   ar
    30     8     7    1
    31     8     9    1
    32    10     9    1
    33     7    25    1
    34     7    26    1
