@<TRIPOS>MOLECULE
39331
 20 21 0 0 0
SMALL
GASTEIGER
Energy = 0

@<TRIPOS>ATOM
      1 C           0.0500    0.6091    0.5029 C.ar    1  LIG11       0.0957
      2 N           1.0944    0.0734    0.9827 N.ar    1  LIG11      -0.2316
      3 C           1.0712   -1.2476    0.7571 C.ar    1  LIG11       0.1395
      4 C          -0.1116   -1.4861    0.0760 C.ar    1  LIG11       0.1638
      5 N          -0.7202   -0.2846   -0.0597 N.ar    1  LIG11      -0.3291
      6 N          -0.4335   -2.7355   -0.3027 N.ar    1  LIG11      -0.1952
      7 C           0.4315   -3.7317   -0.0020 C.ar    1  LIG11       0.2155
      8 N           1.5893   -3.5117    0.6684 N.ar    1  LIG11      -0.2060
      9 C           1.9562   -2.2741    1.0699 C.ar    1  LIG11       0.1304
     10 S           3.4666   -1.9534    1.9349 S.3     1  LIG11      -0.0886
     11 C           4.2746   -0.9172    0.6763 C.3     1  LIG11       0.0867
     12 C           4.4037   -1.6489   -0.5772 C.1     1  LIG11       0.0736
     13 N           4.5086   -2.2274   -1.5742 N.1     1  LIG11      -0.1957
     14 N           0.1321   -4.9901   -0.3829 N.pl3   1  LIG11      -0.3274
     15 H          -1.6237   -0.1172   -0.5231 H       1  LIG11       0.1682
     16 H          -0.1564    1.6790    0.5642 H       1  LIG11       0.1027
     17 H           0.7804   -5.7597   -0.1679 H       1  LIG11       0.1452
     18 H          -0.7421   -5.1798   -0.8913 H       1  LIG11       0.1452
     19 H           3.6906   -0.0021    0.5019 H       1  LIG11       0.0535
     20 H           5.2788   -0.6426    1.0291 H       1  LIG11       0.0535
@<TRIPOS>BOND
     1    13    12    3
     2    18    14    1
     3    12    11    1
     4    15     5    1
     5    14    17    1
     6    14     7    1
     7     6     7   ar
     8     6     4   ar
     9     5     4   ar
    10     5     1   ar
    11     7     8   ar
    12     4     3   ar
    13    19    11    1
    14     1    16    1
    15     1     2   ar
    16     8     9   ar
    17    11    20    1
    18    11    10    1
    19     3     2   ar
    20     3     9   ar
    21     9    10    1
