@<TRIPOS>MOLECULE
39330
 31 33 0 0 0
SMALL
GASTEIGER
Energy = 0

@<TRIPOS>ATOM
      1 C           3.7153    0.7129   -0.2777 C.ar    1  LIG11      -0.0556
      2 C           2.8775    1.6169   -0.9371 C.ar    1  LIG11      -0.0312
      3 C           1.9739    1.1718   -1.9107 C.ar    1  LIG11       0.1262
      4 C           1.9948   -0.1782   -2.2812 C.ar    1  LIG11      -0.0312
      5 C           2.8416   -1.0814   -1.6325 C.ar    1  LIG11      -0.0556
      6 C           3.6598   -0.6503   -0.5829 C.ar    1  LIG11      -0.0370
      7 C           4.4657   -1.6566    0.2476 C.3     1  LIG11       0.0249
      8 S           3.5373   -1.9282    1.7927 S.3     1  LIG11      -0.0989
      9 C           1.9695   -2.2709    1.0442 C.ar    1  LIG11       0.1298
     10 C           1.0698   -1.2482    0.7594 C.ar    1  LIG11       0.1395
     11 C          -0.1100   -1.4850    0.0731 C.ar    1  LIG11       0.1638
     12 N          -0.7144   -0.2822   -0.0702 N.ar    1  LIG11      -0.3291
     13 C           0.0486    0.6090    0.5052 C.ar    1  LIG11       0.0957
     14 N           1.0843    0.0705    0.9995 N.ar    1  LIG11      -0.2316
     15 N          -0.4312   -2.7347   -0.3059 N.ar    1  LIG11      -0.1952
     16 C           0.4254   -3.7334    0.0101 C.ar    1  LIG11       0.2155
     17 N           1.5854   -3.5140    0.6770 N.ar    1  LIG11      -0.2060
     18 N           0.1149   -4.9945   -0.3515 N.pl3   1  LIG11      -0.3274
     19 N           1.0891    2.0281   -2.4830 N.pl3   1  LIG11       0.0564
     20 O           1.0436    3.1918   -2.1463 O.2     1  LIG11      -0.1261
     21 O           0.3075    1.6428   -3.3224 O.2     1  LIG11      -0.1261
     22 H           4.4021    1.0722    0.4818 H       1  LIG11       0.0621
     23 H           2.9340    2.6689   -0.6779 H       1  LIG11       0.0640
     24 H           1.3493   -0.5419   -3.0734 H       1  LIG11       0.0640
     25 H           2.8475   -2.1223   -1.9401 H       1  LIG11       0.0621
     26 H           5.4647   -1.2610    0.4840 H       1  LIG11       0.0429
     27 H           4.5813   -2.6179   -0.2754 H       1  LIG11       0.0429
     28 H          -1.6081   -0.1111   -0.5502 H       1  LIG11       0.1682
     29 H          -0.1541    1.6797    0.5642 H       1  LIG11       0.1027
     30 H          -0.7603   -5.1837   -0.8586 H       1  LIG11       0.1452
     31 H           0.7530   -5.7677   -0.1192 H       1  LIG11       0.1452
@<TRIPOS>BOND
     1    21    19    2
     2    24     4    1
     3    19    20    2
     4    19     3    1
     5     4     3   ar
     6     4     5   ar
     7    25     5    1
     8     3     2   ar
     9     5     6   ar
    10     2    23    1
    11     2     1   ar
    12    30    18    1
    13     6     1   ar
    14     6     7    1
    15    28    12    1
    16    18    31    1
    17    18    16    1
    18    15    16   ar
    19    15    11   ar
    20     1    22    1
    21    27     7    1
    22    12    11   ar
    23    12    13   ar
    24    16    17   ar
    25    11    10   ar
    26     7    26    1
    27     7     8    1
    28    13    29    1
    29    13    14   ar
    30    17     9   ar
    31    10    14   ar
    32    10     9   ar
    33     9     8    1
