@<TRIPOS>MOLECULE
52388
 33 35 0 0 0
SMALL
GASTEIGER
Energy = 0

@<TRIPOS>ATOM
      1 C           1.7932   -1.8051   -2.8245 C.3     1  LIG11      -0.0558
      2 C           2.1490   -0.2997   -2.7336 C.3     1  LIG11      -0.0017
      3 S           3.9178   -0.0286   -3.0935 S.3     1  LIG11      -0.0862
      4 C           4.6395   -0.9355   -1.7563 C.ar    1  LIG11       0.1910
      5 N           5.8078   -1.5835   -1.9318 N.ar    1  LIG11      -0.2061
      6 C           6.3449   -2.3370   -0.9508 C.ar    1  LIG11       0.1357
      7 C           5.6659   -2.4767    0.2674 C.ar    1  LIG11       0.0895
      8 C           4.4637   -1.7800    0.4175 C.ar    1  LIG11       0.1231
      9 N           4.0211   -0.9680   -0.5610 N.ar    1  LIG11      -0.2139
     10 S           3.4883   -1.9445    1.8834 S.3     1  LIG11      -0.0466
     11 C           1.9587   -2.2735    1.0642 C.ar    1  LIG11       0.1355
     12 C           1.0720   -1.2472    0.7569 C.ar    1  LIG11       0.1399
     13 C          -0.1109   -1.4857    0.0764 C.ar    1  LIG11       0.1639
     14 N          -0.7196   -0.2847   -0.0610 N.ar    1  LIG11      -0.3291
     15 C           0.0492    0.6089    0.5035 C.ar    1  LIG11       0.0957
     16 N           1.0927    0.0735    0.9847 N.ar    1  LIG11      -0.2316
     17 N          -0.4332   -2.7352   -0.3022 N.ar    1  LIG11      -0.1952
     18 C           0.4322   -3.7315   -0.0036 C.ar    1  LIG11       0.2155
     19 N           1.5862   -3.5133    0.6736 N.ar    1  LIG11      -0.2057
     20 N           0.1375   -4.9876   -0.3950 N.pl3   1  LIG11      -0.3274
     21 BR          6.3092   -3.5409    1.6458 Br      1  LIG11      -0.0440
     22 N           7.5345   -2.9284   -1.2105 N.pl3   1  LIG11      -0.3421
     23 H           8.0114   -3.5107   -0.5095 H       1  LIG11       0.1437
     24 H           7.9761   -2.7907   -2.1312 H       1  LIG11       0.1437
     25 H           1.5677    0.2655   -3.4789 H       1  LIG11       0.0378
     26 H           1.9137    0.0977   -1.7341 H       1  LIG11       0.0378
     27 H          -1.6223   -0.1173   -0.5255 H       1  LIG11       0.1682
     28 H          -0.1557    1.6790    0.5659 H       1  LIG11       0.1027
     29 H           2.3179   -2.3837   -2.0491 H       1  LIG11       0.0238
     30 H           0.7096   -1.9437   -2.6878 H       1  LIG11       0.0238
     31 H           2.0755   -2.2001   -3.8124 H       1  LIG11       0.0238
     32 H           0.7839   -5.7584   -0.1785 H       1  LIG11       0.1452
     33 H          -0.7328   -5.1749   -0.9110 H       1  LIG11       0.1452
@<TRIPOS>BOND
     1    31     1    1
     2    25     2    1
     3     3     2    1
     4     3     4    1
     5     1     2    1
     6     1    30    1
     7     1    29    1
     8     2    26    1
     9    24    22    1
    10     5     4   ar
    11     5     6   ar
    12     4     9   ar
    13    22     6    1
    14    22    23    1
    15     6     7   ar
    16    33    20    1
    17     9     8   ar
    18    27    14    1
    19    20    32    1
    20    20    18    1
    21    17    18   ar
    22    17    13   ar
    23    14    13   ar
    24    14    15   ar
    25    18    19   ar
    26    13    12   ar
    27     7     8   ar
    28     7    21    1
    29     8    10    1
    30    15    28    1
    31    15    16   ar
    32    19    11   ar
    33    12    16   ar
    34    12    11   ar
    35    11    10    1
