@<TRIPOS>MOLECULE
C01
 16 16 0 0 0
SMALL
GASTEIGER

@<TRIPOS>ATOM
      1 C           2.1043  -11.3200   73.2285 C.ar    1  LIG111     -0.0617
      2 C           2.1620  -10.0577   73.8281 C.ar    1  LIG111     -0.0611
      3 C           3.3684   -9.3522   73.8606 C.ar    1  LIG111     -0.0507
      4 C           4.5222   -9.9139   73.3084 C.ar    1  LIG111      0.0290
      5 C           4.3951  -11.0590   72.5177 C.ar    1  LIG111     -0.0507
      6 C           3.2241  -11.8194   72.5586 C.ar    1  LIG111     -0.0611
      7 C           5.9013   -9.3522   73.5738 C.2     1  LIG111      0.2734
      8 C           6.1783   -7.9542   73.9218 C.2     1  LIG111      0.4260
      9 O           5.9192   -7.5109   75.0784 O.co2   1  LIG111     -0.2369
     10 O           6.8813  -10.0814   73.5550 O.2     1  LIG111     -0.2795
     11 O           6.7839   -7.1991   73.1054 O.co2   1  LIG111     -0.2369
     12 H           1.1934  -11.9081   73.2780 H       1  LIG111      0.0618
     13 H           1.2710   -9.6250   74.2727 H       1  LIG111      0.0618
     14 H           3.4051   -8.3756   74.3219 H       1  LIG111      0.0625
     15 H           5.2048  -11.3579   71.8677 H       1  LIG111      0.0625
     16 H           3.1885  -12.7900   72.0695 H       1  LIG111      0.0618
@<TRIPOS>BOND
     1    15     5    1
     2    16     6    1
     3     5     6   ar
     4     5     4   ar
     5     6     1   ar
     6    11     8   ar
     7     1    12    1
     8     1     2   ar
     9     4     7    1
    10     4     3   ar
    11    10     7    2
    12     7     8    1
    13     2     3   ar
    14     2    13    1
    15     3    14    1
    16     8     9   ar
