@<TRIPOS>MOLECULE
C12
 18 18 0 0 0
SMALL
GASTEIGER

@<TRIPOS>ATOM
      1 C           2.1711  -11.3284   74.1386 C.ar    1  LIG111     -0.0617
      2 C           3.2206  -11.7639   73.3256 C.ar    1  LIG111     -0.0614
      3 C           4.3001  -10.9213   73.0585 C.ar    1  LIG111     -0.0556
      4 C           4.3274   -9.6007   73.5254 C.ar    1  LIG111     -0.0083
      5 C           3.2057   -9.1396   74.2283 C.ar    1  LIG111     -0.0556
      6 C           2.1612  -10.0007   74.5772 C.ar    1  LIG111     -0.0614
      7 C           5.5211   -8.6550   73.2637 C.3     1  LIG111      0.1810
      8 C           6.1692   -8.2561   74.5760 C.2     1  LIG111      0.3884
      9 O           6.7035   -9.1255   75.3380 O.co2   1  LIG111     -0.2431
     10 H           1.3715  -12.0081   74.4221 H       1  LIG111      0.0618
     11 O           6.1847   -7.0281   74.9310 O.co2   1  LIG111     -0.2431
     12 H           3.1921  -12.7583   72.8942 H       1  LIG111      0.0618
     13 H           5.1159  -11.3047   72.4646 H       1  LIG111      0.0621
     14 H           3.1372   -8.0947   74.4927 H       1  LIG111      0.0621
     15 H           1.3327   -9.6440   75.1815 H       1  LIG111      0.0618
     16 H           5.1011   -7.7300   72.8337 H       1  LIG111      0.0763
     17 O           6.5097   -9.1707   72.3319 O.3     1  LIG111     -0.3761
     18 H           6.0995   -9.3574   71.4886 H       1  LIG111      0.2110
@<TRIPOS>BOND
     1    18    17    1
     2    17     7    1
     3    13     3    1
     4    16     7    1
     5    12     2    1
     6     3     2   ar
     7     3     4   ar
     8     7     4    1
     9     7     8    1
    10     2     1   ar
    11     4     5   ar
    12     1    10    1
    13     1     6   ar
    14     5    14    1
    15     5     6   ar
    16     8    11   ar
    17     8     9   ar
    18     6    15    1
