@<TRIPOS>MOLECULE
C37
 24 25 0 0 0
SMALL
GASTEIGER

@<TRIPOS>ATOM
      1 C           5.5275   -8.7324   73.9233 C.2     1  LIG111      0.2536
      2 C           6.5869   -8.2138   73.0486 C.2     1  LIG111      0.2702
      3 C           5.9543   -9.0645   72.0526 C.2     1  LIG111      0.1931
      4 C           4.9819   -9.5654   72.8185 C.2     1  LIG111      0.1286
      5 O           5.2963   -8.5867   75.1139 O.2     1  LIG111     -0.2816
      6 O           7.5659   -7.4861   73.1379 O.2     1  LIG111     -0.2798
      7 O           6.2607   -9.2643   70.7669 O.2     1  LIG111     -0.5018
      8 N           4.0198  -10.4213   72.6147 N.pl3   1  LIG111     -0.3084
      9 C           2.4219   -9.4872   74.1412 C.ar    1  LIG111     -0.0403
     10 C           1.1699   -9.6117   74.7493 C.ar    1  LIG111     -0.0571
     11 C           0.4714  -10.8213   74.6932 C.ar    1  LIG111     -0.0503
     12 C           1.1219  -11.9593   74.2039 C.ar    1  LIG111     -0.0571
     13 C           2.9685  -10.5755   73.4538 C.ar    1  LIG111      0.0315
     14 C           2.3609  -11.8292   73.5707 C.ar    1  LIG111     -0.0403
     15 C          -0.9939  -10.8803   75.1402 C.3     1  LIG111     -0.0397
     16 H           5.6037   -9.7990   70.3257 H       1  LIG111      0.2924
     17 H           4.0211  -10.9641   71.7361 H       1  LIG111      0.1524
     18 H           2.9308   -8.5317   74.1819 H       1  LIG111      0.0636
     19 H           0.7354   -8.7543   75.2467 H       1  LIG111      0.0621
     20 H           0.6633  -12.9390   74.2977 H       1  LIG111      0.0621
     21 H           2.8493  -12.6965   73.1445 H       1  LIG111      0.0636
     22 H          -1.6154  -10.4924   74.3190 H       1  LIG111      0.0278
     23 H          -1.1463  -10.2497   76.0276 H       1  LIG111      0.0278
     24 H          -1.3165  -11.9084   75.3650 H       1  LIG111      0.0278
@<TRIPOS>BOND
     1    16     7    1
     2     7     3    1
     3    17     8    1
     4     3     4    2
     5     3     2    1
     6     8     4    1
     7     8    13    1
     8     4     1    1
     9     2     6    2
    10     2     1    1
    11    21    14    1
    12    13    14   ar
    13    13     9   ar
    14    14    12   ar
    15     1     5    2
    16     9    18    1
    17     9    10   ar
    18    12    20    1
    19    12    11   ar
    20    22    15    1
    21    11    10   ar
    22    11    15    1
    23    10    19    1
    24    15    24    1
    25    15    23    1
