@<TRIPOS>MOLECULE
Mol_60
 82 87 0 0 0
SMALL
GASTEIGER
Energy = 0

@<TRIPOS>ATOM
      1 C           2.3652   -5.4915    0.7805 C.2     1  LIG11       0.3060
      2 C           3.2994   -5.6821   -1.4461 C.3     1  LIG11       0.0416
      3 C           2.8234   -3.3820   -0.4121 C.3     1  LIG11       0.0601
      4 C           1.4701   -2.6332   -0.4281 C.3     1  LIG11       0.1016
      5 C           0.7605   -2.6970    0.9480 C.3     1  LIG11       0.1016
      6 C           0.3943   -4.1410    1.3599 C.3     1  LIG11       0.0601
      7 C           1.5545   -5.5909    3.0922 C.3     1  LIG11       0.0416
      8 C           3.2033   -4.9565   -2.7980 C.ar    1  LIG11      -0.0295
      9 C           4.3400   -4.4276   -3.4202 C.ar    1  LIG11      -0.0493
     10 C           4.2233   -3.6644   -4.5898 C.ar    1  LIG11      -0.0176
     11 C           2.9571   -3.4285   -5.1414 C.ar    1  LIG11      -0.0179
     12 C           1.8248   -3.9870   -4.5392 C.ar    1  LIG11      -0.0537
     13 C           1.9517   -4.7797   -3.3951 C.ar    1  LIG11      -0.0565
     14 C           5.3588   -3.1300   -5.2099 C.ar    1  LIG11      -0.0540
     15 C           5.2354   -2.3637   -6.3731 C.ar    1  LIG11      -0.0612
     16 C           3.9710   -2.1130   -6.9114 C.ar    1  LIG11      -0.0612
     17 C           2.8344   -2.6377   -6.2915 C.ar    1  LIG11      -0.0540
     18 C           3.8593   -2.8264    0.6112 C.3     1  LIG11      -0.0064
     19 C           5.2513   -2.5952   -0.0039 C.ar    1  LIG11      -0.0455
     20 C           6.1850   -3.6345   -0.0817 C.ar    1  LIG11      -0.0585
     21 C           7.4595   -3.4003   -0.6076 C.ar    1  LIG11      -0.0615
     22 C           7.8076   -2.1257   -1.0637 C.ar    1  LIG11      -0.0617
     23 C           6.8735   -1.0884   -1.0055 C.ar    1  LIG11      -0.0615
     24 C           5.5981   -1.3270   -0.4866 C.ar    1  LIG11      -0.0585
     25 C          -0.5640   -4.8593    0.3641 C.3     1  LIG11      -0.0064
     26 C          -1.1759   -6.1348    0.9706 C.ar    1  LIG11      -0.0455
     27 C          -0.5389   -7.3707    0.8065 C.ar    1  LIG11      -0.0585
     28 C          -1.1083   -8.5396    1.3200 C.ar    1  LIG11      -0.0615
     29 C          -2.3201   -8.4820    2.0130 C.ar    1  LIG11      -0.0617
     30 C          -2.9553   -7.2507    2.1949 C.ar    1  LIG11      -0.0615
     31 C          -2.3825   -6.0831    1.6800 C.ar    1  LIG11      -0.0585
     32 C           2.0033   -4.5577    4.1445 C.ar    1  LIG11      -0.0300
     33 C           1.1154   -4.0347    5.0937 C.ar    1  LIG11      -0.0567
     34 C           1.5521   -3.1080    6.0468 C.ar    1  LIG11      -0.0561
     35 C           2.8786   -2.6634    6.0492 C.ar    1  LIG11      -0.0222
     36 C           3.7648   -3.1703    5.0942 C.ar    1  LIG11      -0.0561
     37 C           3.3382   -4.1393    4.1810 C.ar    1  LIG11      -0.0567
     38 C           3.3699   -1.6485    7.0920 C.3     1  LIG11       0.0692
     39 O           4.0573   -2.3603    8.1341 O.3     1  LIG11      -0.3904
     40 H           2.7498   -6.6327   -1.5506 H       1  LIG11       0.0514
     41 H           4.3443   -5.9316   -1.2076 H       1  LIG11       0.0514
     42 N           2.7331   -4.8526   -0.3684 N.am    1  LIG11      -0.2752
     43 N           1.5134   -5.0125    1.7353 N.am    1  LIG11      -0.2752
     44 H           3.2481   -3.0499   -1.3710 H       1  LIG11       0.0531
     45 H           0.8447   -3.0868   -1.2162 H       1  LIG11       0.0638
     46 H           1.4129   -2.3102    1.7476 H       1  LIG11       0.0638
     47 H          -0.2254   -3.9769    2.2597 H       1  LIG11       0.0531
     48 O           2.8476   -6.5981    0.9560 O.2     1  LIG11      -0.2524
     49 O           1.7349   -1.2669   -0.8079 O.3     1  LIG11      -0.3873
     50 O          -0.4544   -1.9183    0.9425 O.3     1  LIG11      -0.3873
     51 H           2.2434   -6.4421    3.1984 H       1  LIG11       0.0514
     52 H           0.5562   -5.9793    3.3483 H       1  LIG11       0.0514
     53 H           5.3188   -4.5978   -2.9836 H       1  LIG11       0.0627
     54 H           0.8370   -3.8088   -4.9530 H       1  LIG11       0.0624
     55 H           1.0724   -5.2476   -2.9651 H       1  LIG11       0.0621
     56 H           6.3472   -3.3037   -4.7952 H       1  LIG11       0.0624
     57 H           6.1203   -1.9629   -6.8580 H       1  LIG11       0.0618
     58 H           3.8724   -1.5118   -7.8107 H       1  LIG11       0.0618
     59 H           1.8565   -2.4259   -6.7127 H       1  LIG11       0.0624
     60 H           3.9580   -3.5197    1.4519 H       1  LIG11       0.0332
     61 H           3.5407   -1.8583    1.0216 H       1  LIG11       0.0332
     62 H           5.9249   -4.6272    0.2699 H       1  LIG11       0.0620
     63 H           8.1827   -4.2084   -0.6602 H       1  LIG11       0.0618
     64 H           8.8007   -1.9402   -1.4619 H       1  LIG11       0.0618
     65 H           7.1383   -0.0973   -1.3620 H       1  LIG11       0.0618
     66 H           4.8780   -0.5149   -0.4600 H       1  LIG11       0.0620
     67 H          -0.0311   -5.1477   -0.5525 H       1  LIG11       0.0332
     68 H          -1.3834   -4.1830    0.0718 H       1  LIG11       0.0332
     69 H           0.4036   -7.4332    0.2736 H       1  LIG11       0.0620
     70 H          -0.6095   -9.4937    1.1787 H       1  LIG11       0.0618
     71 H          -2.7657   -9.3906    2.4077 H       1  LIG11       0.0618
     72 H          -3.8959   -7.2040    2.7359 H       1  LIG11       0.0618
     73 H          -2.8860   -5.1338    1.8328 H       1  LIG11       0.0620
     74 H           0.0777   -4.3514    5.1060 H       1  LIG11       0.0621
     75 H           0.8556   -2.7378    6.7932 H       1  LIG11       0.0621
     76 H           4.7918   -2.8187    5.0674 H       1  LIG11       0.0621
     77 H           4.0597   -4.5797    3.5033 H       1  LIG11       0.0621
     78 H           2.5344   -1.0603    7.5071 H       1  LIG11       0.0607
     79 H           4.0784   -0.9422    6.6311 H       1  LIG11       0.0607
     80 H           3.5074   -3.0207    8.5455 H       1  LIG11       0.2098
     81 H           0.9478   -0.7676   -1.0002 H       1  LIG11       0.2100
     82 H          -0.3069   -0.9773    0.9397 H       1  LIG11       0.2100
@<TRIPOS>BOND
     1    58    16    1
     2    16    15   ar
     3    16    17   ar
     4    57    15    1
     5    59    17    1
     6    15    14   ar
     7    17    11   ar
     8    14    56    1
     9    14    10   ar
    10    11    10   ar
    11    11    12   ar
    12    54    12    1
    13    10     9   ar
    14    12    13   ar
    15     9    53    1
    16     9     8   ar
    17    13    55    1
    18    13     8   ar
    19     8     2    1
    20    40     2    1
    21    64    22    1
    22     2    41    1
    23     2    42    1
    24    44     3    1
    25    65    23    1
    26    45     4    1
    27    22    23   ar
    28    22    21   ar
    29    23    24   ar
    30    81    49    1
    31    49     4    1
    32    63    21    1
    33    21    20   ar
    34    67    25    1
    35    24    66    1
    36    24    19   ar
    37     4     3    1
    38     4     5    1
    39     3    42    1
    40     3    18    1
    41    42     1   am
    42    20    19   ar
    43    20    62    1
    44    19    18    1
    45    68    25    1
    46    69    27    1
    47    25    26    1
    48    25     6    1
    49    18    61    1
    50    18    60    1
    51     1    48    2
    52     1    43   am
    53    27    26   ar
    54    27    28   ar
    55    82    50    1
    56    50     5    1
    57     5     6    1
    58     5    46    1
    59    26    31   ar
    60    70    28    1
    61    28    29   ar
    62     6    43    1
    63     6    47    1
    64    31    73    1
    65    31    30   ar
    66    43     7    1
    67    29    30   ar
    68    29    71    1
    69    30    72    1
    70     7    51    1
    71     7    52    1
    72     7    32    1
    73    77    37    1
    74    32    37   ar
    75    32    33   ar
    76    37    36   ar
    77    76    36    1
    78    33    74    1
    79    33    34   ar
    80    36    35   ar
    81    34    35   ar
    82    34    75    1
    83    35    38    1
    84    79    38    1
    85    38    78    1
    86    38    39    1
    87    39    80    1
