@<TRIPOS>MOLECULE
Mol_73
 104 108 0 0 0
SMALL
GASTEIGER
Energy = 0

@<TRIPOS>ATOM
      1 C           3.1989   -5.0626   -0.1862 C.2     1  LIG11       0.3060
      2 C           3.8984   -4.7581   -2.4940 C.3     1  LIG11       0.0416
      3 C           3.1685   -2.7713   -1.1002 C.3     1  LIG11       0.0601
      4 C           1.7004   -2.3240   -0.9154 C.3     1  LIG11       0.1016
      5 C           1.1757   -2.6350    0.5104 C.3     1  LIG11       0.1016
      6 C           1.1464   -4.1537    0.8207 C.3     1  LIG11       0.0601
      7 C           2.7471   -5.6422    2.1254 C.3     1  LIG11       0.0416
      8 C           3.1333   -4.2177   -3.7144 C.ar    1  LIG11      -0.0293
      9 C           3.7921   -3.4945   -4.7120 C.ar    1  LIG11      -0.0449
     10 C           3.1512   -3.1895   -5.9196 C.ar    1  LIG11       0.0370
     11 C           1.7596   -3.3295   -5.9972 C.ar    1  LIG11      -0.0496
     12 C           1.0604   -3.9288   -4.9459 C.ar    1  LIG11      -0.0607
     13 C           1.7599   -4.4446   -3.8514 C.ar    1  LIG11      -0.0570
     14 C           3.9794   -2.7373   -7.1055 C.2     1  LIG11       0.2445
     15 C          -0.1541   -6.3747    8.1296 C.3     1  LIG11       0.0265
     16 C           0.0435   -7.9154    8.2715 C.3     1  LIG11      -0.0442
     17 C           0.3076   -5.7024    9.4565 C.3     1  LIG11      -0.0442
     18 C           4.1487   -2.1445   -0.0683 C.3     1  LIG11      -0.0064
     19 C           5.6222   -2.2544   -0.4953 C.ar    1  LIG11      -0.0455
     20 C           6.2634   -1.1825   -1.1292 C.ar    1  LIG11      -0.0585
     21 C           7.6140   -1.2698   -1.4809 C.ar    1  LIG11      -0.0615
     22 C           8.3333   -2.4366   -1.2095 C.ar    1  LIG11      -0.0617
     23 C           7.6966   -3.5147   -0.5888 C.ar    1  LIG11      -0.0615
     24 C           6.3464   -3.4241   -0.2374 C.ar    1  LIG11      -0.0585
     25 C           0.1787   -4.9572   -0.1043 C.3     1  LIG11      -0.0064
     26 C          -0.5579   -6.0922    0.6279 C.ar    1  LIG11      -0.0455
     27 C          -1.6963   -5.7966    1.3870 C.ar    1  LIG11      -0.0585
     28 C          -2.3886   -6.8107    2.0552 C.ar    1  LIG11      -0.0615
     29 C          -1.9468   -8.1333    1.9670 C.ar    1  LIG11      -0.0617
     30 C          -0.8164   -8.4376    1.2036 C.ar    1  LIG11      -0.0615
     31 C          -0.1233   -7.4206    0.5392 C.ar    1  LIG11      -0.0585
     32 C           2.7892   -4.7977    3.4107 C.ar    1  LIG11      -0.0293
     33 C           1.8377   -4.9938    4.4161 C.ar    1  LIG11      -0.0449
     34 C           1.9186   -4.2960    5.6269 C.ar    1  LIG11       0.0370
     35 C           2.8748   -3.2871    5.7801 C.ar    1  LIG11      -0.0496
     36 C           3.8084   -3.0556    4.7669 C.ar    1  LIG11      -0.0607
     37 C           3.7907   -3.8398    3.6092 C.ar    1  LIG11      -0.0570
     38 C           0.9911   -4.6385    6.7728 C.2     1  LIG11       0.2445
     39 C          -1.6566   -6.0772    7.8600 C.3     1  LIG11      -0.0442
     40 C           6.1252   -2.9327   -8.3891 C.3     1  LIG11       0.0265
     41 C           6.7912   -1.5492   -8.1271 C.3     1  LIG11      -0.0442
     42 N           3.3352   -4.2201   -1.2490 N.am    1  LIG11      -0.2752
     43 N           2.4361   -4.8519    0.9244 N.am    1  LIG11      -0.2752
     44 N           5.2006   -3.2997   -7.3006 N.am    1  LIG11      -0.3066
     45 C           7.2432   -4.0224   -8.4270 C.3     1  LIG11      -0.0442
     46 N           0.6715   -5.9357    6.9974 N.am    1  LIG11      -0.3066
     47 C           5.4367   -2.9166   -9.7848 C.3     1  LIG11      -0.0442
     48 O           3.8145   -6.1146   -0.2369 O.2     1  LIG11      -0.2524
     49 O           1.6499   -0.9097   -1.1939 O.3     1  LIG11      -0.3873
     50 O          -0.1650   -2.1321    0.6911 O.3     1  LIG11      -0.3873
     51 O           3.5018   -1.8887   -7.8409 O.2     1  LIG11      -0.2702
     52 O           0.5875   -3.7136    7.4573 O.2     1  LIG11      -0.2702
     53 H           3.8337   -5.8550   -2.5757 H       1  LIG11       0.0514
     54 H           4.9644   -4.4856   -2.5378 H       1  LIG11       0.0514
     55 H           3.4721   -2.2901   -2.0463 H       1  LIG11       0.0531
     56 H           1.0967   -2.8518   -1.6720 H       1  LIG11       0.0638
     57 H           1.8127   -2.1540    1.2706 H       1  LIG11       0.0638
     58 H           0.6647   -4.1751    1.8138 H       1  LIG11       0.0531
     59 H           3.7355   -6.1270    2.0934 H       1  LIG11       0.0514
     60 H           2.0004   -6.4471    2.2059 H       1  LIG11       0.0514
     61 H           4.8124   -3.1645   -4.5516 H       1  LIG11       0.0628
     62 H           1.2221   -2.9857   -6.8753 H       1  LIG11       0.0625
     63 H          -0.0234   -4.0052   -4.9784 H       1  LIG11       0.0618
     64 H           1.2283   -5.0245   -3.1119 H       1  LIG11       0.0621
     65 H          -0.2210   -8.4328    7.3353 H       1  LIG11       0.0250
     66 H          -0.5860   -8.3254    9.0749 H       1  LIG11       0.0250
     67 H           1.0979   -8.1378    8.4987 H       1  LIG11       0.0250
     68 H          -0.0336   -4.6604    9.5329 H       1  LIG11       0.0250
     69 H           1.4065   -5.7208    9.5172 H       1  LIG11       0.0250
     70 H          -0.0991   -6.2384   10.3271 H       1  LIG11       0.0250
     71 H           4.0461   -2.6476    0.8968 H       1  LIG11       0.0332
     72 H           3.9040   -1.0813    0.0859 H       1  LIG11       0.0332
     73 H           5.7176   -0.2705   -1.3498 H       1  LIG11       0.0620
     74 H           8.1064   -0.4308   -1.9639 H       1  LIG11       0.0618
     75 H           9.3830   -2.5049   -1.4795 H       1  LIG11       0.0618
     76 H           8.2528   -4.4231   -0.3781 H       1  LIG11       0.0618
     77 H           5.8642   -4.2697    0.2418 H       1  LIG11       0.0620
     78 H           0.7405   -5.4000   -0.9325 H       1  LIG11       0.0332
     79 H          -0.5941   -4.3076   -0.5438 H       1  LIG11       0.0332
     80 H          -2.0510   -4.7730    1.4580 H       1  LIG11       0.0620
     81 H          -3.2705   -6.5714    2.6419 H       1  LIG11       0.0618
     82 H          -2.4808   -8.9215    2.4895 H       1  LIG11       0.0618
     83 H          -0.4779   -9.4667    1.1266 H       1  LIG11       0.0618
     84 H           0.7542   -7.6726   -0.0482 H       1  LIG11       0.0620
     85 H           1.0288   -5.6971    4.2548 H       1  LIG11       0.0628
     86 H           2.9009   -2.6930    6.6892 H       1  LIG11       0.0625
     87 H           4.5522   -2.2726    4.8847 H       1  LIG11       0.0618
     88 H           4.5701   -3.7066    2.8698 H       1  LIG11       0.0621
     89 H          -2.0849   -6.8062    7.1551 H       1  LIG11       0.0250
     90 H          -1.7780   -5.0726    7.4291 H       1  LIG11       0.0250
     91 H          -2.2321   -6.1274    8.7975 H       1  LIG11       0.0250
     92 H           7.6174   -1.6296   -7.4044 H       1  LIG11       0.0250
     93 H           6.0530   -0.8387   -7.7287 H       1  LIG11       0.0250
     94 H           7.2037   -1.1311   -9.0594 H       1  LIG11       0.0250
     95 H           5.4803   -4.0233   -6.6712 H       1  LIG11       0.1495
     96 H           6.8062   -5.0037   -8.6696 H       1  LIG11       0.0250
     97 H           7.7436   -4.1058   -7.4488 H       1  LIG11       0.0250
     98 H           8.0106   -3.7845   -9.1785 H       1  LIG11       0.0250
     99 H           1.0492   -6.6327    6.3905 H       1  LIG11       0.1495
    100 H           6.1917   -2.8262  -10.5823 H       1  LIG11       0.0250
    101 H           4.7498   -2.0656   -9.8882 H       1  LIG11       0.0250
    102 H           4.8765   -3.8496   -9.9434 H       1  LIG11       0.0250
    103 H           0.7658   -0.5679   -1.2792 H       1  LIG11       0.2100
    104 H          -0.2184   -1.1819    0.7298 H       1  LIG11       0.2100
@<TRIPOS>BOND
     1   100    47    1
     2   102    47    1
     3   101    47    1
     4    47    40    1
     5    98    45    1
     6    94    41    1
     7    96    45    1
     8    45    40    1
     9    45    97    1
    10    40    41    1
    11    40    44    1
    12    41    93    1
    13    41    92    1
    14    51    14    2
    15    44    14   am
    16    44    95    1
    17    14    10    1
    18    62    11    1
    19    11    10   ar
    20    11    12   ar
    21    10     9   ar
    22    63    12    1
    23    12    13   ar
    24     9    61    1
    25     9     8   ar
    26    13     8   ar
    27    13    64    1
    28     8     2    1
    29    53     2    1
    30    54     2    1
    31     2    42    1
    32    55     3    1
    33    74    21    1
    34    56     4    1
    35    21    22   ar
    36    21    20   ar
    37    75    22    1
    38    73    20    1
    39   103    49    1
    40    42     3    1
    41    42     1   am
    42    22    23   ar
    43    49     4    1
    44    20    19   ar
    45     3     4    1
    46     3    18    1
    47    78    25    1
    48     4     5    1
    49    23    76    1
    50    23    24   ar
    51    79    25    1
    52    19    24   ar
    53    19    18    1
    54    24    77    1
    55    48     1    2
    56     1    43   am
    57    25    26    1
    58    25     6    1
    59    18    72    1
    60    18    71    1
    61    84    31    1
    62     5    50    1
    63     5     6    1
    64     5    57    1
    65    31    26   ar
    66    31    30   ar
    67    26    27   ar
    68    50   104    1
    69     6    43    1
    70     6    58    1
    71    43     7    1
    72    83    30    1
    73    30    29   ar
    74    27    80    1
    75    27    28   ar
    76    29    28   ar
    77    29    82    1
    78    28    81    1
    79    59     7    1
    80     7    60    1
    81     7    32    1
    82    88    37    1
    83    32    37   ar
    84    32    33   ar
    85    37    36   ar
    86    85    33    1
    87    33    34   ar
    88    36    87    1
    89    36    35   ar
    90    34    35   ar
    91    34    38    1
    92    35    86    1
    93    99    46    1
    94    38    46   am
    95    38    52    2
    96    46    15    1
    97    89    39    1
    98    65    16    1
    99    90    39    1
   100    39    15    1
   101    39    91    1
   102    15    16    1
   103    15    17    1
   104    16    67    1
   105    16    66    1
   106    17    69    1
   107    17    68    1
   108    17    70    1
