@<TRIPOS>MOLECULE
Mol_28
 72 76 0 0 0
SMALL
GASTEIGER
Energy = 0

@<TRIPOS>ATOM
      1 C           2.7820   -4.8264    0.0804 C.2     1  LIG11       0.3060
      2 C           3.4847   -4.7215   -2.2397 C.3     1  LIG11       0.0430
      3 C           2.8497   -2.6002   -0.9717 C.3     1  LIG11       0.0602
      4 C           1.4445   -1.9986   -0.7166 C.3     1  LIG11       0.1016
      5 C           0.9564   -2.2521    0.7351 C.3     1  LIG11       0.1016
      6 C           0.7861   -3.7611    1.0383 C.3     1  LIG11       0.0602
      7 C           2.2675   -5.2998    2.4199 C.3     1  LIG11       0.0430
      8 C           2.9478   -4.1963   -3.5871 C.ar    1  LIG11      -0.0118
      9 C           1.6151   -4.4539   -3.9348 C.ar    1  LIG11      -0.0557
     10 C           1.1064   -4.0621   -5.1766 C.ar    1  LIG11      -0.0614
     11 C           1.9399   -3.4330   -6.1048 C.ar    1  LIG11      -0.0604
     12 C           3.2646   -3.1564   -5.7606 C.ar    1  LIG11      -0.0431
     13 C           3.7523   -3.4882   -4.4918 C.ar    1  LIG11       0.0456
     14 H           3.2456   -5.7973   -2.2648 H       1  LIG11       0.0515
     15 CL         -0.1417   -5.1034    4.4501 Cl      1  LIG11      -0.0832
     16 CL          5.3832   -2.9963   -4.0741 Cl      1  LIG11      -0.0832
     17 H           4.5793   -4.6494   -2.1908 H       1  LIG11       0.0515
     18 C           3.9350   -2.0316   -0.0094 C.3     1  LIG11      -0.0064
     19 C           5.3678   -2.2907   -0.5040 C.ar    1  LIG11      -0.0455
     20 C           6.0490   -1.3259   -1.2567 C.ar    1  LIG11      -0.0585
     21 C           7.3668   -1.5474   -1.6690 C.ar    1  LIG11      -0.0615
     22 C           8.0088   -2.7461   -1.3475 C.ar    1  LIG11      -0.0617
     23 C           7.3295   -3.7203   -0.6115 C.ar    1  LIG11      -0.0615
     24 C           6.0169   -3.4903   -0.1893 C.ar    1  LIG11      -0.0585
     25 C          -0.2091   -4.4782    0.0766 C.3     1  LIG11      -0.0064
     26 C          -0.7393   -5.8096    0.6392 C.ar    1  LIG11      -0.0455
     27 C          -1.9088   -5.8393    1.4091 C.ar    1  LIG11      -0.0585
     28 C          -2.4182   -7.0520    1.8847 C.ar    1  LIG11      -0.0615
     29 C          -1.7514   -8.2480    1.6074 C.ar    1  LIG11      -0.0617
     30 C          -0.5769   -8.2257    0.8504 C.ar    1  LIG11      -0.0615
     31 C          -0.0723   -7.0119    0.3734 C.ar    1  LIG11      -0.0585
     32 C           2.4217   -4.4279    3.6837 C.ar    1  LIG11      -0.0118
     33 C           3.6138   -3.7160    3.8769 C.ar    1  LIG11      -0.0557
     34 C           3.8362   -2.9867    5.0491 C.ar    1  LIG11      -0.0614
     35 C           2.8692   -2.9743    6.0573 C.ar    1  LIG11      -0.0604
     36 C           1.6678   -3.6592    5.8633 C.ar    1  LIG11      -0.0431
     37 C           1.4263   -4.3471    4.6689 C.ar    1  LIG11       0.0456
     38 H           3.1285   -2.1901   -1.9578 H       1  LIG11       0.0531
     39 H           0.7525   -2.4469   -1.4493 H       1  LIG11       0.0638
     40 H           1.6746   -1.8507    1.4691 H       1  LIG11       0.0638
     41 H           0.2713   -3.7572    2.0135 H       1  LIG11       0.0531
     42 N           2.9246   -4.0644   -1.0444 N.am    1  LIG11      -0.2752
     43 N           2.0203   -4.5411    1.1780 N.am    1  LIG11      -0.2752
     44 H           3.1977   -5.8888    2.3966 H       1  LIG11       0.0515
     45 H           1.4565   -6.0310    2.5436 H       1  LIG11       0.0515
     46 H           0.9645   -4.9715   -3.2391 H       1  LIG11       0.0621
     47 H           0.0656   -4.2485   -5.4250 H       1  LIG11       0.0618
     48 O           3.4011   -5.8773    0.0973 O.2     1  LIG11      -0.2524
     49 O           1.5180   -0.5847   -0.9948 O.3     1  LIG11      -0.3873
     50 O          -0.3131   -1.6112    0.9838 O.3     1  LIG11      -0.3873
     51 H           1.5604   -3.1607   -7.0858 H       1  LIG11       0.0618
     52 H           3.9198   -2.6802   -6.4833 H       1  LIG11       0.0632
     53 H           3.8471   -2.4847    0.9867 H       1  LIG11       0.0332
     54 H           3.8002   -0.9447    0.1093 H       1  LIG11       0.0332
     55 H           5.5603   -0.3943   -1.5236 H       1  LIG11       0.0620
     56 H           7.8938   -0.7881   -2.2391 H       1  LIG11       0.0618
     57 H           9.0318   -2.9201   -1.6678 H       1  LIG11       0.0618
     58 H           7.8223   -4.6560   -0.3659 H       1  LIG11       0.0618
     59 H           5.5057   -4.2526    0.3886 H       1  LIG11       0.0620
     60 H           0.2773   -4.6918   -0.8840 H       1  LIG11       0.0332
     61 H          -1.0730   -3.8270   -0.1303 H       1  LIG11       0.0332
     62 H          -2.4340   -4.9180    1.6399 H       1  LIG11       0.0620
     63 H          -3.3337   -7.0669    2.4690 H       1  LIG11       0.0618
     64 H          -2.1442   -9.1905    1.9781 H       1  LIG11       0.0618
     65 H          -0.0575   -9.1540    0.6320 H       1  LIG11       0.0618
     66 H           0.8430   -7.0108   -0.2095 H       1  LIG11       0.0620
     67 H           4.3860   -3.7350    3.1149 H       1  LIG11       0.0621
     68 H           4.7609   -2.4323    5.1823 H       1  LIG11       0.0618
     69 H           3.0501   -2.4365    6.9841 H       1  LIG11       0.0618
     70 H           0.9170   -3.6587    6.6474 H       1  LIG11       0.0632
     71 H           0.6684   -0.1555   -1.0231 H       1  LIG11       0.2100
     72 H          -0.2611   -0.6620    1.0462 H       1  LIG11       0.2100
@<TRIPOS>BOND
     1    51    11    1
     2    52    12    1
     3    11    12   ar
     4    11    10   ar
     5    12    13   ar
     6    47    10    1
     7    10     9   ar
     8    13    16    1
     9    13     8   ar
    10     9     8   ar
    11     9    46    1
    12     8     2    1
    13    14     2    1
    14     2    17    1
    15     2    42    1
    16    56    21    1
    17    38     3    1
    18    21    22   ar
    19    21    20   ar
    20    57    22    1
    21    55    20    1
    22    39     4    1
    23    22    23   ar
    24    20    19   ar
    25    42     3    1
    26    42     1   am
    27    71    49    1
    28    49     4    1
    29     3     4    1
    30     3    18    1
    31    60    25    1
    32     4     5    1
    33    23    58    1
    34    23    24   ar
    35    19    24   ar
    36    19    18    1
    37    66    31    1
    38    24    59    1
    39    61    25    1
    40    18    54    1
    41    18    53    1
    42    25    26    1
    43    25     6    1
    44     1    48    2
    45     1    43   am
    46    31    26   ar
    47    31    30   ar
    48    65    30    1
    49    26    27   ar
    50     5    50    1
    51     5     6    1
    52     5    40    1
    53    30    29   ar
    54    50    72    1
    55     6    43    1
    56     6    41    1
    57    43     7    1
    58    27    62    1
    59    27    28   ar
    60    29    28   ar
    61    29    64    1
    62    28    63    1
    63    44     7    1
    64     7    45    1
    65     7    32    1
    66    67    33    1
    67    32    33   ar
    68    32    37   ar
    69    33    34   ar
    70    15    37    1
    71    37    36   ar
    72    34    68    1
    73    34    35   ar
    74    36    35   ar
    75    36    70    1
    76    35    69    1
