@<TRIPOS>MOLECULE
Mol_84
 98 104 0 0 0
SMALL
GASTEIGER
Energy = 0

@<TRIPOS>ATOM
      1 C           3.1158   -4.7832   -0.2815 C.2     1  LIG11       0.3060
      2 C           2.7647   -5.3299    2.0445 C.3     1  LIG11       0.0416
      3 C           1.1261   -3.8086    0.8107 C.3     1  LIG11       0.0601
      4 C           1.2031   -2.3028    0.4572 C.3     1  LIG11       0.1016
      5 C           1.6053   -2.0373   -1.0157 C.3     1  LIG11       0.1016
      6 C           3.0124   -2.5702   -1.3794 C.3     1  LIG11       0.0601
      7 C           3.6721   -4.7016   -2.6197 C.3     1  LIG11       0.0416
      8 C           2.7663   -4.5089    3.3410 C.ar    1  LIG11      -0.0293
      9 C           1.7454   -4.6816    4.2796 C.ar    1  LIG11      -0.0449
     10 C           1.8200   -4.0511    5.5260 C.ar    1  LIG11       0.0374
     11 C           2.8183   -3.1020    5.7651 C.ar    1  LIG11      -0.0496
     12 C           3.8179   -2.8892    4.8130 C.ar    1  LIG11      -0.0607
     13 C           3.7990   -3.6020    3.6100 C.ar    1  LIG11      -0.0570
     14 C           0.8520   -4.4026    6.6326 C.2     1  LIG11       0.2494
     15 C           6.1434   -3.6815   -8.6860 C.ar    1  LIG11       0.1437
     16 N           5.4961   -3.5838   -9.8641 N.ar    1  LIG11      -0.2372
     17 C           6.1581   -3.6279  -11.0367 C.ar    1  LIG11       0.0481
     18 C           0.0761   -4.5616   -0.0552 C.3     1  LIG11      -0.0064
     19 C          -0.3824   -5.8916    0.5528 C.ar    1  LIG11      -0.0455
     20 C           0.1353   -7.1022    0.0796 C.ar    1  LIG11      -0.0585
     21 C          -0.3437   -8.3148    0.5825 C.ar    1  LIG11      -0.0615
     22 C          -1.3240   -8.3217    1.5787 C.ar    1  LIG11      -0.0617
     23 C          -1.8228   -7.1141    2.0747 C.ar    1  LIG11      -0.0615
     24 C          -1.3465   -5.9018    1.5677 C.ar    1  LIG11      -0.0585
     25 C           4.1478   -1.8977   -0.5544 C.3     1  LIG11      -0.0064
     26 C           5.5468   -2.3255   -1.0156 C.ar    1  LIG11      -0.0455
     27 C           6.1880   -3.3998   -0.3887 C.ar    1  LIG11      -0.0585
     28 C           7.4758   -3.7783   -0.7756 C.ar    1  LIG11      -0.0615
     29 C           8.1304   -3.0849   -1.7969 C.ar    1  LIG11      -0.0617
     30 C           7.4939   -2.0138   -2.4300 C.ar    1  LIG11      -0.0615
     31 C           6.2029   -1.6396   -2.0449 C.ar    1  LIG11      -0.0585
     32 C           3.0148   -4.2281   -3.9239 C.ar    1  LIG11      -0.0293
     33 C           3.8117   -3.7552   -4.9682 C.ar    1  LIG11      -0.0449
     34 C           3.2546   -3.4652   -6.2193 C.ar    1  LIG11       0.0374
     35 C           1.8615   -3.4416   -6.3546 C.ar    1  LIG11      -0.0496
     36 C           1.0478   -3.8449   -5.2930 C.ar    1  LIG11      -0.0607
     37 C           1.6270   -4.2723   -4.0950 C.ar    1  LIG11      -0.0570
     38 C           4.1378   -3.1994   -7.4196 C.2     1  LIG11       0.2494
     39 C           7.5551   -3.6466  -11.0546 C.ar    1  LIG11       0.0605
     40 C           8.2534   -3.6850   -9.8452 C.ar    1  LIG11      -0.0202
     41 C           7.5421   -3.7316   -8.6439 C.ar    1  LIG11       0.0824
     42 N           2.4012   -4.5438    0.8538 N.am    1  LIG11      -0.2752
     43 N           3.1536   -4.0337   -1.4174 N.am    1  LIG11      -0.2752
     44 N           0.5061   -5.6961    6.8283 N.am    1  LIG11      -0.2652
     45 C          -0.2514   -6.1093    7.9570 C.ar    1  LIG11       0.1437
     46 N           5.3651   -3.7652   -7.5046 N.am    1  LIG11      -0.2652
     47 N          -0.4911   -5.2093    8.9323 N.ar    1  LIG11      -0.2372
     48 O           3.8017   -5.7929   -0.2918 O.2     1  LIG11      -0.2524
     49 O          -0.0220   -1.6005    0.7493 O.3     1  LIG11      -0.3873
     50 O           1.4549   -0.6339   -1.3048 O.3     1  LIG11      -0.3873
     51 O           0.4464   -3.4827    7.3236 O.2     1  LIG11      -0.2698
     52 O           3.6884   -2.4788   -8.2963 O.2     1  LIG11      -0.2698
     53 C          -1.1550   -5.5347   10.0586 C.ar    1  LIG11       0.0481
     54 C          -1.6897   -6.8157   10.2112 C.ar    1  LIG11       0.0605
     55 C          -1.4794   -7.7641    9.2078 C.ar    1  LIG11      -0.0202
     56 C          -0.7267   -7.4217    8.0817 C.ar    1  LIG11       0.0824
     57 H           3.7815   -5.7551    2.0106 H       1  LIG11       0.0514
     58 H           2.0707   -6.1811    2.1183 H       1  LIG11       0.0514
     59 H           0.6983   -3.8008    1.8267 H       1  LIG11       0.0531
     60 H           1.9174   -1.8440    1.1560 H       1  LIG11       0.0638
     61 H           0.8919   -2.5208   -1.7002 H       1  LIG11       0.0638
     62 H           3.1721   -2.1879   -2.4024 H       1  LIG11       0.0531
     63 H           3.4857   -5.7886   -2.6215 H       1  LIG11       0.0514
     64 H           4.7636   -4.5576   -2.6399 H       1  LIG11       0.0514
     65 H           0.8930   -5.3094    4.0429 H       1  LIG11       0.0628
     66 H           2.8244   -2.5415    6.6958 H       1  LIG11       0.0625
     67 H           4.6118   -2.1756    5.0144 H       1  LIG11       0.0618
     68 H           4.5949   -3.4521    2.8879 H       1  LIG11       0.0621
     69 H           5.5956   -3.6488  -11.9629 H       1  LIG11       0.0845
     70 CL          8.4191   -3.6226  -12.5771 Cl      1  LIG11      -0.0819
     71 H           0.4877   -4.7555   -1.0500 H       1  LIG11       0.0332
     72 H          -0.8406   -3.9708   -0.1878 H       1  LIG11       0.0332
     73 H           0.9065   -7.1074   -0.6846 H       1  LIG11       0.0620
     74 H           0.0451   -9.2519    0.1963 H       1  LIG11       0.0618
     75 H          -1.6979   -9.2643    1.9663 H       1  LIG11       0.0618
     76 H          -2.5824   -7.1180    2.8508 H       1  LIG11       0.0618
     77 H          -1.7366   -4.9681    1.9618 H       1  LIG11       0.0620
     78 H           4.0663   -2.1487    0.5105 H       1  LIG11       0.0332
     79 H           4.0930   -0.8018   -0.6437 H       1  LIG11       0.0332
     80 H           5.6925   -3.9459    0.4071 H       1  LIG11       0.0620
     81 H           7.9666   -4.6101   -0.2799 H       1  LIG11       0.0618
     82 H           9.1319   -3.3783   -2.0962 H       1  LIG11       0.0618
     83 H           8.0050   -1.4712   -3.2198 H       1  LIG11       0.0618
     84 H           5.7169   -0.8087   -2.5469 H       1  LIG11       0.0620
     85 H           4.8712   -3.6135   -4.7963 H       1  LIG11       0.0628
     86 H           1.4070   -3.1209   -7.2875 H       1  LIG11       0.0625
     87 H          -0.0333   -3.8340   -5.4011 H       1  LIG11       0.0618
     88 H           0.9913   -4.6424   -3.3033 H       1  LIG11       0.0621
     89 H           9.3378   -3.6816   -9.8396 H       1  LIG11       0.0648
     90 CL          8.4071   -3.8552   -7.1229 Cl      1  LIG11      -0.0799
     91 H           0.8589   -6.3821    6.1978 H       1  LIG11       0.1566
     92 H           5.7183   -4.3270   -6.7639 H       1  LIG11       0.1566
     93 H          -1.2692   -4.7932   10.8412 H       1  LIG11       0.0845
     94 H          -0.6981   -1.6925    0.0858 H       1  LIG11       0.2100
     95 H           1.8539   -0.0614   -0.6577 H       1  LIG11       0.2100
     96 CL         -2.6108   -7.2254   11.6428 Cl      1  LIG11      -0.0819
     97 H          -1.8962   -8.7606    9.3040 H       1  LIG11       0.0648
     98 CL         -0.3955   -8.6429    6.8662 Cl      1  LIG11      -0.0799
@<TRIPOS>BOND
     1    70    39    1
     2    69    17    1
     3    39    17   ar
     4    39    40   ar
     5    17    16   ar
     6    16    15   ar
     7    40    89    1
     8    40    41   ar
     9    15    41   ar
    10    15    46    1
    11    41    90    1
    12    52    38    2
    13    46    38   am
    14    46    92    1
    15    38    34    1
    16    86    35    1
    17    35    34   ar
    18    35    36   ar
    19    34    33   ar
    20    87    36    1
    21    36    37   ar
    22    33    85    1
    23    33    32   ar
    24    37    32   ar
    25    37    88    1
    26    32     7    1
    27    83    30    1
    28    64     7    1
    29    63     7    1
    30     7    43    1
    31    84    31    1
    32    30    31   ar
    33    30    29   ar
    34    62     6    1
    35    82    29    1
    36    31    26   ar
    37    29    28   ar
    38    61     5    1
    39    43     6    1
    40    43     1   am
    41     6     5    1
    42     6    25    1
    43    50     5    1
    44    50    95    1
    45    71    18    1
    46     5     4    1
    47    26    25    1
    48    26    27   ar
    49    28    27   ar
    50    28    81    1
    51    73    20    1
    52    79    25    1
    53    25    78    1
    54    27    80    1
    55    48     1    2
    56     1    42   am
    57    72    18    1
    58    18    19    1
    59    18     3    1
    60    20    19   ar
    61    20    21   ar
    62    94    49    1
    63    74    21    1
    64     4    49    1
    65     4     3    1
    66     4    60    1
    67    19    24   ar
    68    21    22   ar
    69     3    42    1
    70     3    59    1
    71    42     2    1
    72    24    77    1
    73    24    23   ar
    74    22    75    1
    75    22    23   ar
    76    57     2    1
    77     2    58    1
    78     2     8    1
    79    23    76    1
    80    68    13    1
    81     8    13   ar
    82     8     9   ar
    83    13    12   ar
    84    65     9    1
    85     9    10   ar
    86    12    67    1
    87    12    11   ar
    88    10    11   ar
    89    10    14    1
    90    11    66    1
    91    91    44    1
    92    14    44   am
    93    14    51    2
    94    44    45    1
    95    98    56    1
    96    45    56   ar
    97    45    47   ar
    98    56    55   ar
    99    47    53   ar
   100    55    97    1
   101    55    54   ar
   102    53    54   ar
   103    53    93    1
   104    54    96    1
