@<TRIPOS>MOLECULE
Mol_67
 82 86 0 0 0
SMALL
GASTEIGER
Energy = 0

@<TRIPOS>ATOM
      1 C           2.9447   -4.8320    0.0376 C.2     1  LIG11       0.3060
      2 C           3.7190   -4.5810   -2.2537 C.3     1  LIG11       0.0416
      3 C           2.9488   -2.5581   -0.9154 C.3     1  LIG11       0.0601
      4 C           1.5160   -2.0229   -0.6715 C.3     1  LIG11       0.1016
      5 C           0.9987   -2.3562    0.7543 C.3     1  LIG11       0.1016
      6 C           0.8818   -3.8808    0.9969 C.3     1  LIG11       0.0601
      7 C           2.3760   -5.4527    2.3245 C.3     1  LIG11       0.0416
      8 C           3.0099   -4.2152   -3.5712 C.ar    1  LIG11      -0.0293
      9 C           3.7080   -3.5862   -4.6077 C.ar    1  LIG11      -0.0449
     10 C           3.0760   -3.2953   -5.8233 C.ar    1  LIG11       0.0390
     11 C           1.7110   -3.5544   -5.9786 C.ar    1  LIG11      -0.0496
     12 C           0.9986   -4.1659   -4.9463 C.ar    1  LIG11      -0.0607
     13 C           1.6604   -4.5287   -3.7706 C.ar    1  LIG11      -0.0570
     14 C           3.8461   -2.7011   -6.9815 C.2     1  LIG11       0.2665
     15 O          -0.3006   -5.7279    8.5103 O.3     1  LIG11      -0.2949
     16 O           5.8447   -2.5176   -8.3224 O.3     1  LIG11      -0.2949
     17 H           3.7303   -5.6821   -2.2725 H       1  LIG11       0.0514
     18 C           3.9852   -1.9749    0.0905 C.3     1  LIG11      -0.0064
     19 C           5.4402   -2.2101   -0.3459 C.ar    1  LIG11      -0.0455
     20 C           6.0960   -3.4058   -0.0283 C.ar    1  LIG11      -0.0585
     21 C           7.4174   -3.6196   -0.4312 C.ar    1  LIG11      -0.0615
     22 C           8.1006   -2.6302   -1.1431 C.ar    1  LIG11      -0.0617
     23 C           7.4586   -1.4272   -1.4482 C.ar    1  LIG11      -0.0615
     24 C           6.1331   -1.2212   -1.0543 C.ar    1  LIG11      -0.0585
     25 C          -0.0744   -4.5808   -0.0120 C.3     1  LIG11      -0.0064
     26 C          -0.6469   -5.9061    0.5139 C.ar    1  LIG11      -0.0455
     27 C          -1.8076   -5.8912    1.2954 C.ar    1  LIG11      -0.0585
     28 C          -2.3515   -7.0834    1.7815 C.ar    1  LIG11      -0.0615
     29 C          -1.7372   -8.3030    1.4855 C.ar    1  LIG11      -0.0617
     30 C          -0.5842   -8.3264    0.6959 C.ar    1  LIG11      -0.0615
     31 C          -0.0394   -7.1319    0.2138 C.ar    1  LIG11      -0.0585
     32 C           2.5714   -4.6289    3.6103 C.ar    1  LIG11      -0.0293
     33 C           1.6825   -4.7579    4.6832 C.ar    1  LIG11      -0.0449
     34 C           1.8906   -4.0556    5.8770 C.ar    1  LIG11       0.0390
     35 C           2.9487   -3.1464    5.9690 C.ar    1  LIG11      -0.0496
     36 C           3.8336   -2.9967    4.8990 C.ar    1  LIG11      -0.0607
     37 C           3.6613   -3.7593    3.7397 C.ar    1  LIG11      -0.0570
     38 C           0.9890   -4.2677    7.0737 C.2     1  LIG11       0.2665
     39 H           4.7683   -4.2503   -2.2738 H       1  LIG11       0.0514
     40 H           3.2329   -2.1049   -1.8819 H       1  LIG11       0.0531
     41 H           0.8637   -2.4669   -1.4424 H       1  LIG11       0.0638
     42 N           3.0921   -4.0136   -1.0454 N.am    1  LIG11      -0.2752
     43 N           2.1375   -4.6335    1.1215 N.am    1  LIG11      -0.2752
     44 N           5.1143   -3.0863   -7.2457 N.am    1  LIG11      -0.1935
     45 H           1.6727   -1.9549    1.5283 H       1  LIG11       0.0638
     46 N           0.5473   -5.5048    7.3939 N.am    1  LIG11      -0.1935
     47 H           0.3508   -3.9382    1.9633 H       1  LIG11       0.0531
     48 O           3.6075   -5.8558    0.0301 O.2     1  LIG11      -0.2524
     49 O           1.5483   -0.5961   -0.8851 O.3     1  LIG11      -0.3873
     50 O          -0.3051   -1.7812    0.9840 O.3     1  LIG11      -0.3873
     51 O           3.2890   -1.8666   -7.6762 O.2     1  LIG11      -0.2681
     52 O           0.6833   -3.2931    7.7418 O.2     1  LIG11      -0.2681
     53 H           3.2820   -6.0763    2.2831 H       1  LIG11       0.0514
     54 H           1.5291   -6.1477    2.4309 H       1  LIG11       0.0514
     55 H           4.7499   -3.3200   -4.4698 H       1  LIG11       0.0628
     56 H           1.2063   -3.2903   -6.9032 H       1  LIG11       0.0625
     57 H          -0.0630   -4.3661   -5.0621 H       1  LIG11       0.0618
     58 H           1.1124   -5.0737   -3.0200 H       1  LIG11       0.0621
     59 H          -1.1782   -5.3983    8.3448 H       1  LIG11       0.2414
     60 H           5.7875   -1.5666   -8.3062 H       1  LIG11       0.2414
     61 H           3.8632   -2.4393    1.0728 H       1  LIG11       0.0332
     62 H           3.8256   -0.8926    0.2213 H       1  LIG11       0.0332
     63 H           5.5850   -4.1786    0.5352 H       1  LIG11       0.0620
     64 H           7.9143   -4.5546   -0.1901 H       1  LIG11       0.0618
     65 H           9.1269   -2.7952   -1.4572 H       1  LIG11       0.0618
     66 H           7.9909   -0.6518   -1.9909 H       1  LIG11       0.0618
     67 H           5.6467   -0.2826   -1.3003 H       1  LIG11       0.0620
     68 H           0.4777   -4.7955   -0.9260 H       1  LIG11       0.0332
     69 H          -0.9194   -3.9290   -0.2852 H       1  LIG11       0.0332
     70 H          -2.2956   -4.9495    1.5261 H       1  LIG11       0.0620
     71 H          -3.2518   -7.0617    2.3881 H       1  LIG11       0.0618
     72 H          -2.1558   -9.2293    1.8678 H       1  LIG11       0.0618
     73 H          -0.1127   -9.2752    0.4571 H       1  LIG11       0.0618
     74 H           0.8579   -7.1650   -0.3969 H       1  LIG11       0.0620
     75 H           0.8211   -5.4099    4.5922 H       1  LIG11       0.0628
     76 H           3.0882   -2.5646    6.8757 H       1  LIG11       0.0625
     77 H           4.6584   -2.2933    4.9745 H       1  LIG11       0.0618
     78 H           4.3913   -3.6809    2.9441 H       1  LIG11       0.0621
     79 H           5.5438   -3.8100   -6.7052 H       1  LIG11       0.1825
     80 H           0.8500   -6.2944    6.8596 H       1  LIG11       0.1825
     81 H           0.6865   -0.1932   -0.9251 H       1  LIG11       0.2100
     82 H          -0.2979   -0.8330    1.0759 H       1  LIG11       0.2100
@<TRIPOS>BOND
     1    16    60    1
     2    16    44    1
     3    51    14    2
     4    44    14   am
     5    44    79    1
     6    14    10    1
     7    56    11    1
     8    11    10   ar
     9    11    12   ar
    10    10     9   ar
    11    57    12    1
    12    12    13   ar
    13     9    55    1
    14     9     8   ar
    15    13     8   ar
    16    13    58    1
    17     8     2    1
    18    39     2    1
    19    17     2    1
    20     2    42    1
    21    66    23    1
    22    40     3    1
    23    65    22    1
    24    23    22   ar
    25    23    24   ar
    26    41     4    1
    27    67    24    1
    28    22    21   ar
    29    24    19   ar
    30    42     3    1
    31    42     1   am
    32    68    25    1
    33    81    49    1
    34     3     4    1
    35     3    18    1
    36    49     4    1
    37     4     5    1
    38    21    64    1
    39    21    20   ar
    40    74    31    1
    41    19    20   ar
    42    19    18    1
    43    69    25    1
    44    20    63    1
    45    25    26    1
    46    25     6    1
    47    48     1    2
    48     1    43   am
    49    18    62    1
    50    18    61    1
    51    31    26   ar
    52    31    30   ar
    53    73    30    1
    54    26    27   ar
    55    30    29   ar
    56     5    50    1
    57     5     6    1
    58     5    45    1
    59    50    82    1
    60     6    43    1
    61     6    47    1
    62    43     7    1
    63    27    70    1
    64    27    28   ar
    65    29    28   ar
    66    29    72    1
    67    28    71    1
    68    53     7    1
    69     7    54    1
    70     7    32    1
    71    78    37    1
    72    32    37   ar
    73    32    33   ar
    74    37    36   ar
    75    75    33    1
    76    33    34   ar
    77    36    77    1
    78    36    35   ar
    79    34    35   ar
    80    34    38    1
    81    35    76    1
    82    80    46    1
    83    38    46   am
    84    38    52    2
    85    46    15    1
    86    59    15    1
