@<TRIPOS>MOLECULE
Mol_102
 88 93 0 0 0
SMALL
GASTEIGER
Energy = 0

@<TRIPOS>ATOM
      1 C           2.9186   -4.9122    0.2795 C.2     1  LIG11       0.3060
      2 C           3.6744   -4.8295   -2.0250 C.3     1  LIG11       0.0416
      3 C           3.0298   -2.6935   -0.7911 C.3     1  LIG11       0.0601
      4 C           1.6406   -2.0554   -0.5345 C.3     1  LIG11       0.1016
      5 C           1.1348   -2.3152    0.9105 C.3     1  LIG11       0.1016
      6 C           0.8967   -3.8200    1.1816 C.3     1  LIG11       0.0601
      7 C           2.3049   -5.3892    2.5918 C.3     1  LIG11       0.0417
      8 C           3.0233   -4.4527   -3.3676 C.ar    1  LIG11      -0.0293
      9 C           3.7892   -3.9189   -4.4093 C.ar    1  LIG11      -0.0449
     10 C           3.2022   -3.6322   -5.6479 C.ar    1  LIG11       0.0374
     11 C           1.8242   -3.7833   -5.8236 C.ar    1  LIG11      -0.0496
     12 C           1.0465   -4.2917   -4.7831 C.ar    1  LIG11      -0.0607
     13 C           1.6565   -4.6634   -3.5824 C.ar    1  LIG11      -0.0570
     14 C           4.0390   -3.1689   -6.8176 C.2     1  LIG11       0.2494
     15 C           6.0649   -3.4910   -8.1728 C.ar    1  LIG11       0.1434
     16 N           7.3325   -3.9378   -8.0668 N.ar    1  LIG11      -0.2371
     17 C           4.1325   -2.1263    0.1544 C.3     1  LIG11      -0.0064
     18 C           5.5574   -2.3587   -0.3786 C.ar    1  LIG11      -0.0455
     19 C           6.2158   -3.5720   -0.1453 C.ar    1  LIG11      -0.0585
     20 C           7.5104   -3.7833   -0.6296 C.ar    1  LIG11      -0.0615
     21 C           8.1676   -2.7730   -1.3365 C.ar    1  LIG11      -0.0617
     22 C           7.5226   -1.5544   -1.5629 C.ar    1  LIG11      -0.0615
     23 C           6.2217   -1.3527   -1.0916 C.ar    1  LIG11      -0.0585
     24 C          -0.0976   -4.4730    0.1803 C.3     1  LIG11      -0.0064
     25 C          -0.6799   -5.8100    0.6645 C.ar    1  LIG11      -0.0455
     26 C          -1.8790   -5.8254    1.3861 C.ar    1  LIG11      -0.0585
     27 C          -2.4425   -7.0357    1.8003 C.ar    1  LIG11      -0.0615
     28 C          -1.8047   -8.2424    1.5012 C.ar    1  LIG11      -0.0617
     29 C          -0.6039   -8.2342    0.7862 C.ar    1  LIG11      -0.0615
     30 C          -0.0405   -7.0220    0.3751 C.ar    1  LIG11      -0.0585
     31 C           2.5416   -4.4454    3.7819 C.ar    1  LIG11      -0.0266
     32 C           3.7464   -3.7415    3.8981 C.ar    1  LIG11      -0.0568
     33 C           3.9646   -2.8770    4.9759 C.ar    1  LIG11      -0.0580
     34 C           2.9895   -2.7371    5.9676 C.ar    1  LIG11      -0.0199
     35 C           1.7973   -3.4590    5.8749 C.ar    1  LIG11       0.1204
     36 C           1.5677   -4.2900    4.7749 C.ar    1  LIG11      -0.0153
     37 H           4.8923   -2.3162    5.0464 H       1  LIG11       0.0619
     38 O           0.8351   -3.3479    6.8793 O.3     1  LIG11      -0.4951
     39 C           0.7236   -4.5031    7.7282 C.3     1  LIG11       0.0788
     40 N           3.0904   -4.1609   -0.8477 N.am    1  LIG11      -0.2752
     41 N           2.1057   -4.6365    1.3414 N.am    1  LIG11      -0.2752
     42 N           5.2089   -3.7922   -7.0799 N.am    1  LIG11      -0.2652
     43 C           8.2191   -3.7395   -9.0622 C.ar    1  LIG11       0.0478
     44 H           3.5767   -5.9263   -1.9939 H       1  LIG11       0.0514
     45 H           4.7498   -4.6055   -2.0512 H       1  LIG11       0.0514
     46 O           3.5641   -5.9456    0.3353 O.2     1  LIG11      -0.2524
     47 O           1.7514   -0.6405   -0.7954 O.3     1  LIG11      -0.3873
     48 O          -0.1087   -1.6263    1.1607 O.3     1  LIG11      -0.3873
     49 O           3.5913   -2.2440   -7.4731 O.2     1  LIG11      -0.2698
     50 H           3.3039   -2.3045   -1.7877 H       1  LIG11       0.0531
     51 C           7.8238   -3.0458  -10.2094 C.ar    1  LIG11       0.0458
     52 H           0.9419   -2.4676   -1.2814 H       1  LIG11       0.0638
     53 N           6.5629   -2.5769  -10.3067 N.ar    1  LIG11      -0.2583
     54 C           5.6632   -2.8000   -9.3257 C.ar    1  LIG11       0.0676
     55 H           1.8672   -1.9664    1.6573 H       1  LIG11       0.0638
     56 H           0.3488   -3.8223    2.1401 H       1  LIG11       0.0531
     57 H           3.1704   -6.0694    2.5941 H       1  LIG11       0.0514
     58 H           1.4176   -6.0183    2.7636 H       1  LIG11       0.0514
     59 H           4.8466   -3.7265   -4.2618 H       1  LIG11       0.0628
     60 H           1.3621   -3.5184   -6.7700 H       1  LIG11       0.0625
     61 H          -0.0260   -4.4060   -4.9121 H       1  LIG11       0.0618
     62 H           1.0543   -5.1346   -2.8230 H       1  LIG11       0.0621
     63 H           4.0672   -2.5915    1.1456 H       1  LIG11       0.0332
     64 H           3.9911   -1.0429    0.2942 H       1  LIG11       0.0332
     65 H           5.7235   -4.3609    0.4136 H       1  LIG11       0.0620
     66 H           8.0073   -4.7331   -0.4561 H       1  LIG11       0.0618
     67 H           9.1757   -2.9332   -1.7076 H       1  LIG11       0.0618
     68 H           8.0339   -0.7638   -2.1043 H       1  LIG11       0.0618
     69 H           5.7330   -0.4024   -1.2820 H       1  LIG11       0.0620
     70 H           0.4258   -4.6745   -0.7531 H       1  LIG11       0.0332
     71 H          -0.9305   -3.7889   -0.0479 H       1  LIG11       0.0332
     72 H          -2.3829   -4.8943    1.6247 H       1  LIG11       0.0620
     73 H          -3.3770   -7.0383    2.3534 H       1  LIG11       0.0618
     74 H          -2.2416   -9.1830    1.8234 H       1  LIG11       0.0618
     75 H          -0.1099   -9.1720    0.5494 H       1  LIG11       0.0618
     76 H           0.8956   -7.0307   -0.1747 H       1  LIG11       0.0620
     77 H           4.5241   -3.8700    3.1527 H       1  LIG11       0.0621
     78 H           3.1533   -2.0726    6.8101 H       1  LIG11       0.0654
     79 H           0.6230   -4.8163    4.7030 H       1  LIG11       0.0657
     80 H           0.4679   -5.4089    7.1568 H       1  LIG11       0.0660
     81 H          -0.0773   -4.3153    8.4583 H       1  LIG11       0.0660
     82 H           1.6659   -4.6721    8.2719 H       1  LIG11       0.0660
     83 H           5.5092   -4.5283   -6.4762 H       1  LIG11       0.1566
     84 H           9.2299   -4.1196   -8.9642 H       1  LIG11       0.0846
     85 H           0.9130   -0.1898   -0.8298 H       1  LIG11       0.2100
     86 H          -0.0152   -0.6815    1.2391 H       1  LIG11       0.2100
     87 H           8.5223   -2.8815  -11.0221 H       1  LIG11       0.0845
     88 H           4.6548   -2.4443   -9.4800 H       1  LIG11       0.0865
@<TRIPOS>BOND
     1    87    51    1
     2    53    51   ar
     3    53    54   ar
     4    51    43   ar
     5    88    54    1
     6    54    15   ar
     7    43    84    1
     8    43    16   ar
     9    15    16   ar
    10    15    42    1
    11    49    14    2
    12    42    14   am
    13    42    83    1
    14    14    10    1
    15    60    11    1
    16    11    10   ar
    17    11    12   ar
    18    10     9   ar
    19    61    12    1
    20    12    13   ar
    21     9    59    1
    22     9     8   ar
    23    13     8   ar
    24    13    62    1
    25     8     2    1
    26    68    22    1
    27    45     2    1
    28     2    44    1
    29     2    40    1
    30    50     3    1
    31    67    21    1
    32    22    21   ar
    33    22    23   ar
    34    21    20   ar
    35    69    23    1
    36    52     4    1
    37    23    18   ar
    38    40     3    1
    39    40     1   am
    40    85    47    1
    41    47     4    1
    42     3     4    1
    43     3    17    1
    44    70    24    1
    45    20    66    1
    46    20    19   ar
    47     4     5    1
    48    18    19   ar
    49    18    17    1
    50    76    30    1
    51    19    65    1
    52    71    24    1
    53    17    64    1
    54    17    63    1
    55    24    25    1
    56    24     6    1
    57     1    46    2
    58     1    41   am
    59    30    25   ar
    60    30    29   ar
    61    75    29    1
    62    25    26   ar
    63    29    28   ar
    64     5    48    1
    65     5     6    1
    66     5    55    1
    67    48    86    1
    68     6    41    1
    69     6    56    1
    70    41     7    1
    71    26    72    1
    72    26    27   ar
    73    28    27   ar
    74    28    74    1
    75    27    73    1
    76     7    57    1
    77     7    58    1
    78     7    31    1
    79    77    32    1
    80    31    32   ar
    81    31    36   ar
    82    32    33   ar
    83    79    36    1
    84    36    35   ar
    85    33    37    1
    86    33    34   ar
    87    35    34   ar
    88    35    38    1
    89    34    78    1
    90    38    39    1
    91    80    39    1
    92    39    82    1
    93    39    81    1
