@<TRIPOS>MOLECULE
Mol_14
 60 62 0 0 0
SMALL
GASTEIGER
Energy = 0

@<TRIPOS>ATOM
      1 C           2.6993   -4.7474    0.2392 C.2     1  LIG11       0.3060
      2 C           3.4419   -4.6371   -2.0802 C.3     1  LIG11       0.0344
      3 C           2.8695   -2.5174   -0.7929 C.3     1  LIG11       0.0601
      4 C           1.4641   -1.8822   -0.6454 C.3     1  LIG11       0.1016
      5 C           0.8734   -2.1275    0.7663 C.3     1  LIG11       0.1016
      6 C           0.6617   -3.6338    1.0513 C.3     1  LIG11       0.0601
      7 C           2.1053   -5.0607    2.5847 C.3     1  LIG11       0.0344
      8 C           2.4122   -4.5175   -3.1774 C.2     1  LIG11      -0.0739
      9 C           2.6993   -4.1458   -4.4306 C.2     1  LIG11      -0.1012
     10 H           3.6265   -5.7173   -1.9730 H       1  LIG11       0.0508
     11 H           4.4008   -4.1772   -2.3680 H       1  LIG11       0.0508
     12 H           3.2137   -2.1164   -1.7632 H       1  LIG11       0.0531
     13 H           0.8168   -2.3114   -1.4278 H       1  LIG11       0.0638
     14 H           1.5586   -1.7386    1.5371 H       1  LIG11       0.0638
     15 H           0.0807   -3.6255    1.9900 H       1  LIG11       0.0531
     16 H           2.8986   -5.8243    2.5812 H       1  LIG11       0.0508
     17 H           1.1853   -5.5713    2.9103 H       1  LIG11       0.0508
     18 C           3.9025   -1.9719    0.2397 C.3     1  LIG11      -0.0064
     19 C           5.3510   -2.1758   -0.2359 C.ar    1  LIG11      -0.0455
     20 C           6.0151   -3.3829    0.0095 C.ar    1  LIG11      -0.0585
     21 C           7.3382   -3.5614   -0.4070 C.ar    1  LIG11      -0.0615
     22 C           8.0074   -2.5339   -1.0769 C.ar    1  LIG11      -0.0617
     23 C           7.3499   -1.3264   -1.3275 C.ar    1  LIG11      -0.0615
     24 C           6.0272   -1.1510   -0.9106 C.ar    1  LIG11      -0.0585
     25 C          -0.2924   -4.3393    0.0444 C.3     1  LIG11      -0.0064
     26 C          -0.7293   -5.7270    0.5404 C.ar    1  LIG11      -0.0455
     27 C          -1.7608   -5.8410    1.4804 C.ar    1  LIG11      -0.0585
     28 C          -2.1810   -7.0982    1.9236 C.ar    1  LIG11      -0.0615
     29 C          -1.5735   -8.2546    1.4261 C.ar    1  LIG11      -0.0617
     30 C          -0.5438   -8.1484    0.4881 C.ar    1  LIG11      -0.0615
     31 C          -0.1179   -6.8889    0.0540 C.ar    1  LIG11      -0.0585
     32 C           2.4547   -3.9905    3.5950 C.2     1  LIG11      -0.0739
     33 C           3.4975   -4.0749    4.4314 C.2     1  LIG11      -0.1012
     34 H           1.3767   -4.7585   -2.9415 H       1  LIG11       0.0582
     35 H           1.9102   -4.0822   -5.1812 H       1  LIG11       0.0532
     36 H           3.7161   -3.9046   -4.7371 H       1  LIG11       0.0532
     37 H           3.7907   -2.4666    1.2159 H       1  LIG11       0.0332
     38 H           3.7423   -0.8935    0.3977 H       1  LIG11       0.0332
     39 H           5.5068   -4.1893    0.5280 H       1  LIG11       0.0620
     40 H           7.8479   -4.4995   -0.2091 H       1  LIG11       0.0618
     41 H           9.0345   -2.6719   -1.4015 H       1  LIG11       0.0618
     42 N           2.9205   -3.9839   -0.8685 N.am    1  LIG11      -0.2758
     43 N           1.8793   -4.4221    1.2777 N.am    1  LIG11      -0.2758
     44 H           7.8682   -0.5248   -1.8456 H       1  LIG11       0.0618
     45 H           5.5297   -0.2081   -1.1142 H       1  LIG11       0.0620
     46 H           0.1959   -4.4704   -0.9263 H       1  LIG11       0.0332
     47 H          -1.1952   -3.7291   -0.1196 H       1  LIG11       0.0332
     48 O           3.2883   -5.8130    0.3076 O.2     1  LIG11      -0.2524
     49 O           1.5838   -0.4701   -0.9148 O.3     1  LIG11      -0.3873
     50 O          -0.3961   -1.4635    0.9384 O.3     1  LIG11      -0.3873
     51 H          -2.2437   -4.9501    1.8690 H       1  LIG11       0.0620
     52 H          -2.9808   -7.1783    2.6537 H       1  LIG11       0.0618
     53 H          -1.9010   -9.2321    1.7676 H       1  LIG11       0.0618
     54 H          -0.0744   -9.0454    0.0953 H       1  LIG11       0.0618
     55 H           0.6910   -6.8238   -0.6671 H       1  LIG11       0.0620
     56 H           1.8297   -3.0994    3.6584 H       1  LIG11       0.0582
     57 H           4.1644   -4.9364    4.4359 H       1  LIG11       0.0532
     58 H           3.7075   -3.2738    5.1412 H       1  LIG11       0.0532
     59 H           0.7455   -0.0275   -1.0071 H       1  LIG11       0.2100
     60 H          -0.3284   -0.5152    1.0003 H       1  LIG11       0.2100
@<TRIPOS>BOND
     1    35     9    1
     2    36     9    1
     3     9     8    2
     4     8    34    1
     5     8     2    1
     6    11     2    1
     7     2    10    1
     8     2    42    1
     9    44    23    1
    10    12     3    1
    11    13     4    1
    12    41    22    1
    13    23    22   ar
    14    23    24   ar
    15    45    24    1
    16    22    21   ar
    17    59    49    1
    18    46    25    1
    19    49     4    1
    20    24    19   ar
    21    42     3    1
    22    42     1   am
    23     3     4    1
    24     3    18    1
    25    55    31    1
    26     4     5    1
    27    21    40    1
    28    21    20   ar
    29    19    20   ar
    30    19    18    1
    31    47    25    1
    32    20    39    1
    33    25    26    1
    34    25     6    1
    35    31    30   ar
    36    31    26   ar
    37    54    30    1
    38     1    48    2
    39     1    43   am
    40    18    38    1
    41    18    37    1
    42    30    29   ar
    43    26    27   ar
    44     5    50    1
    45     5     6    1
    46     5    14    1
    47    50    60    1
    48     6    43    1
    49     6    15    1
    50    43     7    1
    51    29    53    1
    52    29    28   ar
    53    27    51    1
    54    27    28   ar
    55    28    52    1
    56    16     7    1
    57     7    17    1
    58     7    32    1
    59    32    56    1
    60    32    33    2
    61    33    57    1
    62    33    58    1
