@<TRIPOS>MOLECULE
Mol_11
 82 84 0 0 0
SMALL
GASTEIGER
Energy = 0

@<TRIPOS>ATOM
      1 C           2.7154   -4.6479    0.0234 C.2     1  LIG11       0.3054
      2 C           2.1600   -5.0863    2.3502 C.3     1  LIG11       0.0166
      3 C           0.6876   -3.5893    0.9116 C.3     1  LIG11       0.0598
      4 C           0.8981   -2.0693    0.7218 C.3     1  LIG11       0.1016
      5 C           1.4665   -1.7518   -0.6832 C.3     1  LIG11       0.1016
      6 C           2.8751   -2.3646   -0.8787 C.3     1  LIG11       0.0598
      7 C           3.4091   -4.4011   -2.2971 C.3     1  LIG11       0.0166
      8 C           2.3002   -4.0884    3.5340 C.3     1  LIG11      -0.0369
      9 C           4.1270   -3.9559   -5.3725 C.3     1  LIG11      -0.0467
     10 C           2.5308   -4.8360    4.8765 C.3     1  LIG11      -0.0493
     11 C           2.8847   -4.7064   -4.8004 C.3     1  LIG11      -0.0493
     12 C           2.2204   -4.7833    7.4257 C.3     1  LIG11      -0.0627
     13 C           2.2248   -3.9432    6.1159 C.3     1  LIG11      -0.0467
     14 C           3.2396   -2.7720    6.2301 C.3     1  LIG11      -0.0627
     15 C           4.4754   -4.5275   -6.7736 C.3     1  LIG11      -0.0627
     16 C           3.8938   -2.4197   -5.4584 C.3     1  LIG11      -0.0627
     17 H           3.0863   -5.6847    2.3473 H       1  LIG11       0.0465
     18 C          -0.2796   -4.2413   -0.1169 C.3     1  LIG11      -0.0064
     19 C          -0.7947   -5.6001    0.3874 C.ar    1  LIG11      -0.0455
     20 C          -0.1625   -6.7876    0.0026 C.ar    1  LIG11      -0.0585
     21 C          -0.6550   -8.0236    0.4338 C.ar    1  LIG11      -0.0615
     22 C          -1.7726   -8.0800    1.2703 C.ar    1  LIG11      -0.0617
     23 C          -2.3988   -6.8967    1.6724 C.ar    1  LIG11      -0.0615
     24 C          -1.9099   -5.6631    1.2330 C.ar    1  LIG11      -0.0585
     25 C           3.9354   -1.8847    0.1558 C.3     1  LIG11      -0.0064
     26 C           5.3740   -2.1006   -0.3488 C.ar    1  LIG11      -0.0455
     27 C           6.0308   -3.3182   -0.1289 C.ar    1  LIG11      -0.0585
     28 C           7.3501   -3.5002   -0.5529 C.ar    1  LIG11      -0.0615
     29 C           8.0235   -2.4684   -1.2140 C.ar    1  LIG11      -0.0617
     30 C           7.3709   -1.2568   -1.4505 C.ar    1  LIG11      -0.0615
     31 C           6.0505   -1.0774   -1.0235 C.ar    1  LIG11      -0.0585
     32 C           2.3800   -4.1620   -3.4355 C.3     1  LIG11      -0.0369
     33 H           1.3201   -5.7790    2.5207 H       1  LIG11       0.0465
     34 H           0.0893   -3.6467    1.8342 H       1  LIG11       0.0530
     35 H           1.5942   -1.7301    1.5072 H       1  LIG11       0.0638
     36 H           0.8133   -2.1671   -1.4682 H       1  LIG11       0.0638
     37 H           3.2190   -1.8954   -1.8167 H       1  LIG11       0.0530
     38 H           3.5807   -5.4889   -2.2544 H       1  LIG11       0.0465
     39 H           4.3776   -3.9319   -2.5198 H       1  LIG11       0.0465
     40 H           1.3914   -3.4809    3.6377 H       1  LIG11       0.0280
     41 H           3.1363   -3.4033    3.3247 H       1  LIG11       0.0280
     42 N           1.9170   -4.3712    1.0900 N.am    1  LIG11      -0.2796
     43 N           2.9108   -3.8235   -1.0431 N.am    1  LIG11      -0.2796
     44 H           5.0110   -4.1405   -4.7388 H       1  LIG11       0.0295
     45 H           3.5643   -5.2160    4.9214 H       1  LIG11       0.0268
     46 H           1.8500   -5.7019    4.8992 H       1  LIG11       0.0268
     47 H           2.0579   -4.6300   -5.5261 H       1  LIG11       0.0268
     48 O           3.3020   -5.7175    0.0278 O.2     1  LIG11      -0.2524
     49 O          -0.3698   -1.4185    0.9449 O.3     1  LIG11      -0.3873
     50 O           1.5535   -0.3294   -0.9039 O.3     1  LIG11      -0.3873
     51 H           3.1255   -5.7765   -4.6863 H       1  LIG11       0.0268
     52 H           1.7581   -5.7705    7.2716 H       1  LIG11       0.0232
     53 H           1.6443   -4.2620    8.2070 H       1  LIG11       0.0232
     54 H           3.2455   -4.9374    7.7939 H       1  LIG11       0.0232
     55 H           1.2085   -3.5254    5.9982 H       1  LIG11       0.0295
     56 H           4.2665   -3.1658    6.2843 H       1  LIG11       0.0232
     57 H           3.0419   -2.1850    7.1399 H       1  LIG11       0.0232
     58 H           3.1713   -2.0951    5.3657 H       1  LIG11       0.0232
     59 H           3.6399   -4.3678   -7.4718 H       1  LIG11       0.0232
     60 H           4.6802   -5.6076   -6.7064 H       1  LIG11       0.0232
     61 H           5.3722   -4.0342   -7.1802 H       1  LIG11       0.0232
     62 H           2.8958   -2.2047   -5.8703 H       1  LIG11       0.0232
     63 H           4.6440   -1.9436   -6.1073 H       1  LIG11       0.0232
     64 H           3.9778   -1.9518   -4.4650 H       1  LIG11       0.0232
     65 H           0.2144   -4.3932   -1.0842 H       1  LIG11       0.0332
     66 H          -1.1481   -3.5841   -0.2848 H       1  LIG11       0.0332
     67 H           0.7151   -6.7574   -0.6354 H       1  LIG11       0.0620
     68 H          -0.1685   -8.9412    0.1176 H       1  LIG11       0.0618
     69 H          -2.1538   -9.0395    1.6071 H       1  LIG11       0.0618
     70 H          -3.2657   -6.9380    2.3253 H       1  LIG11       0.0618
     71 H          -2.4047   -4.7514    1.5528 H       1  LIG11       0.0620
     72 H           3.8268   -2.4193    1.1090 H       1  LIG11       0.0332
     73 H           3.7958   -0.8111    0.3596 H       1  LIG11       0.0332
     74 H           5.5182   -4.1302    0.3764 H       1  LIG11       0.0620
     75 H           7.8555   -4.4435   -0.3685 H       1  LIG11       0.0618
     76 H           9.0495   -2.6086   -1.5418 H       1  LIG11       0.0618
     77 H           7.8903   -0.4536   -1.9651 H       1  LIG11       0.0618
     78 H           5.5561   -0.1314   -1.2194 H       1  LIG11       0.0620
     79 H           2.1195   -3.0989   -3.5341 H       1  LIG11       0.0280
     80 H           1.4486   -4.6890   -3.1727 H       1  LIG11       0.0280
     81 H          -0.3014   -0.4744    1.0497 H       1  LIG11       0.2100
     82 H           0.7029    0.0937   -0.9738 H       1  LIG11       0.2100
@<TRIPOS>BOND
     1    59    15    1
     2    61    15    1
     3    15    60    1
     4    15     9    1
     5    63    16    1
     6    62    16    1
     7    47    11    1
     8    16     9    1
     9    16    64    1
    10     9    11    1
    11     9    44    1
    12    11    51    1
    13    11    32    1
    14    79    32    1
    15    32    80    1
    16    32     7    1
    17    39     7    1
    18     7    38    1
    19     7    43    1
    20    77    30    1
    21    37     6    1
    22    76    29    1
    23    36     5    1
    24    30    29   ar
    25    30    31   ar
    26    78    31    1
    27    29    28   ar
    28    65    18    1
    29    43     6    1
    30    43     1   am
    31    31    26   ar
    32    82    50    1
    33    50     5    1
    34     6     5    1
    35     6    25    1
    36     5     4    1
    37    67    20    1
    38    28    75    1
    39    28    27   ar
    40    26    27   ar
    41    26    25    1
    42    66    18    1
    43    27    74    1
    44    18    19    1
    45    18     3    1
    46    20    19   ar
    47    20    21   ar
    48     1    48    2
    49     1    42   am
    50    68    21    1
    51    25    73    1
    52    25    72    1
    53    19    24   ar
    54    21    22   ar
    55     4     3    1
    56     4    49    1
    57     4    35    1
    58     3    42    1
    59     3    34    1
    60    49    81    1
    61    42     2    1
    62    24    71    1
    63    24    23   ar
    64    22    69    1
    65    22    23   ar
    66    23    70    1
    67    17     2    1
    68     2    33    1
    69     2     8    1
    70    41     8    1
    71     8    40    1
    72     8    10    1
    73    10    46    1
    74    10    45    1
    75    10    13    1
    76    58    14    1
    77    55    13    1
    78    13    14    1
    79    13    12    1
    80    14    56    1
    81    14    57    1
    82    52    12    1
    83    12    54    1
    84    12    53    1
