@<TRIPOS>MOLECULE
Mol_54
 72 76 0 0 0
SMALL
GASTEIGER
Energy = 0

@<TRIPOS>ATOM
      1 C           2.8335   -5.0011   -0.3635 C.2     1  LIG11       0.3060
      2 C           2.4415   -5.7284    1.9348 C.3     1  LIG11       0.0416
      3 C           1.0434   -3.8773    0.8884 C.3     1  LIG11       0.0601
      4 C           1.3660   -2.3672    0.7786 C.3     1  LIG11       0.1016
      5 C           1.7825   -1.9616   -0.6592 C.3     1  LIG11       0.1016
      6 C           3.0935   -2.6550   -1.0963 C.3     1  LIG11       0.0601
      7 C           3.2907   -4.5881   -2.7217 C.3     1  LIG11       0.0344
      8 C           2.7404   -5.0408    3.2837 C.ar    1  LIG11      -0.0295
      9 C           1.9286   -5.2404    4.4072 C.ar    1  LIG11      -0.0493
     10 C           2.2321   -4.6362    5.6362 C.ar    1  LIG11      -0.0176
     11 C           3.3278   -3.7692    5.7372 C.ar    1  LIG11      -0.0179
     12 C           4.1305   -3.5474    4.6148 C.ar    1  LIG11      -0.0537
     13 C           3.8634   -4.2181    3.4184 C.ar    1  LIG11      -0.0565
     14 C           1.4556   -4.8922    6.7729 C.ar    1  LIG11      -0.0540
     15 C           1.7569   -4.2777    7.9925 C.ar    1  LIG11      -0.0612
     16 C           2.8361   -3.3953    8.0829 C.ar    1  LIG11      -0.0612
     17 C           3.6183   -3.1392    6.9544 C.ar    1  LIG11      -0.0540
     18 C          -0.0945   -4.3282   -0.0789 C.3     1  LIG11      -0.0064
     19 C          -0.7987   -5.6094    0.3994 C.ar    1  LIG11      -0.0455
     20 C          -0.3741   -6.8668   -0.0457 C.ar    1  LIG11      -0.0585
     21 C          -1.0485   -8.0246    0.3550 C.ar    1  LIG11      -0.0615
     22 C          -2.1426   -7.9358    1.2200 C.ar    1  LIG11      -0.0617
     23 C          -2.5592   -6.6856    1.6845 C.ar    1  LIG11      -0.0615
     24 C          -1.8871   -5.5291    1.2772 C.ar    1  LIG11      -0.0585
     25 C           4.3057   -2.3462   -0.1726 C.3     1  LIG11      -0.0064
     26 C           5.6548   -2.3909   -0.9098 C.ar    1  LIG11      -0.0455
     27 C           6.4026   -3.5726   -0.9781 C.ar    1  LIG11      -0.0585
     28 C           7.6457   -3.5864   -1.6192 C.ar    1  LIG11      -0.0615
     29 C           8.1440   -2.4217   -2.2098 C.ar    1  LIG11      -0.0617
     30 C           7.3963   -1.2425   -2.1567 C.ar    1  LIG11      -0.0615
     31 C           6.1565   -1.2301   -1.5109 C.ar    1  LIG11      -0.0585
     32 C           2.3243   -3.9509   -3.6924 C.2     1  LIG11      -0.0739
     33 C           2.7061   -3.1931   -4.7281 C.2     1  LIG11      -0.1012
     34 H           3.3161   -6.3774    1.7714 H       1  LIG11       0.0514
     35 H           1.5668   -6.3905    2.0253 H       1  LIG11       0.0514
     36 H           0.6009   -3.9638    1.8968 H       1  LIG11       0.0531
     37 H           2.1740   -2.1531    1.4987 H       1  LIG11       0.0638
     38 H           1.0060   -2.2460   -1.3887 H       1  LIG11       0.0638
     39 H           3.3416   -2.1344   -2.0383 H       1  LIG11       0.0531
     40 H           3.1601   -5.6753   -2.8431 H       1  LIG11       0.0508
     41 H           4.3382   -4.3495   -2.9651 H       1  LIG11       0.0508
     42 N           2.1898   -4.7917    0.8228 N.am    1  LIG11      -0.2752
     43 N           2.9863   -4.0933   -1.3724 N.am    1  LIG11      -0.2758
     44 H           1.0570   -5.8813    4.3278 H       1  LIG11       0.0627
     45 H           4.9715   -2.8618    4.6657 H       1  LIG11       0.0624
     46 H           4.5534   -4.1050    2.5964 H       1  LIG11       0.0621
     47 H           0.6118   -5.5731    6.7208 H       1  LIG11       0.0624
     48 O           3.3135   -6.1077   -0.5445 O.2     1  LIG11      -0.2524
     49 O           0.1877   -1.6439    1.1914 O.3     1  LIG11      -0.3873
     50 O           1.9876   -0.5370   -0.7678 O.3     1  LIG11      -0.3873
     51 H           1.1532   -4.4853    8.8708 H       1  LIG11       0.0618
     52 H           3.0668   -2.9111    9.0275 H       1  LIG11       0.0618
     53 H           4.4537   -2.4500    7.0342 H       1  LIG11       0.0624
     54 H           0.2961   -4.5032   -1.0918 H       1  LIG11       0.0332
     55 H          -0.8623   -3.5421   -0.1577 H       1  LIG11       0.0332
     56 H           0.4818   -6.9503   -0.7080 H       1  LIG11       0.0620
     57 H          -0.7233   -8.9954   -0.0065 H       1  LIG11       0.0618
     58 H          -2.6675   -8.8346    1.5304 H       1  LIG11       0.0618
     59 H          -3.4062   -6.6137    2.3607 H       1  LIG11       0.0618
     60 H          -2.2207   -4.5645    1.6467 H       1  LIG11       0.0620
     61 H           4.3297   -3.0837    0.6306 H       1  LIG11       0.0332
     62 H           4.2091   -1.3541    0.2948 H       1  LIG11       0.0332
     63 H           6.0228   -4.4860   -0.5307 H       1  LIG11       0.0620
     64 H           8.2272   -4.5026   -1.6587 H       1  LIG11       0.0618
     65 H           9.1088   -2.4319   -2.7085 H       1  LIG11       0.0618
     66 H           7.7793   -0.3361   -2.6161 H       1  LIG11       0.0618
     67 H           5.5848   -0.3081   -1.4764 H       1  LIG11       0.0620
     68 H           1.2587   -4.1233   -3.5326 H       1  LIG11       0.0582
     69 H           3.7565   -2.9891   -4.9331 H       1  LIG11       0.0532
     70 H           1.9645   -2.7577   -5.3990 H       1  LIG11       0.0532
     71 H           0.3358   -0.7122    1.3191 H       1  LIG11       0.2100
     72 H           1.1831   -0.0287   -0.7291 H       1  LIG11       0.2100
@<TRIPOS>BOND
     1    70    33    1
     2    69    33    1
     3    33    32    2
     4    32    68    1
     5    32     7    1
     6    41     7    1
     7    40     7    1
     8     7    43    1
     9    65    29    1
    10    66    30    1
    11    29    30   ar
    12    29    28   ar
    13    30    31   ar
    14    39     6    1
    15    64    28    1
    16    28    27   ar
    17    31    67    1
    18    31    26   ar
    19    38     5    1
    20    43     6    1
    21    43     1   am
    22     6     5    1
    23     6    25    1
    24    54    18    1
    25    27    26   ar
    26    27    63    1
    27    26    25    1
    28    50    72    1
    29    50     5    1
    30    56    20    1
    31     5     4    1
    32    48     1    2
    33     1    42   am
    34    25    62    1
    35    25    61    1
    36    55    18    1
    37    18    19    1
    38    18     3    1
    39    20    21   ar
    40    20    19   ar
    41    57    21    1
    42    21    22   ar
    43    19    24   ar
    44     4     3    1
    45     4    49    1
    46     4    37    1
    47    42     3    1
    48    42     2    1
    49     3    36    1
    50    49    71    1
    51    22    58    1
    52    22    23   ar
    53    24    60    1
    54    24    23   ar
    55    23    59    1
    56    34     2    1
    57     2    35    1
    58     2     8    1
    59    46    13    1
    60     8    13   ar
    61     8     9   ar
    62    13    12   ar
    63    44     9    1
    64     9    10   ar
    65    12    45    1
    66    12    11   ar
    67    10    11   ar
    68    10    14   ar
    69    11    17   ar
    70    47    14    1
    71    14    15   ar
    72    17    53    1
    73    17    16   ar
    74    15    16   ar
    75    15    51    1
    76    16    52    1
