@<TRIPOS>MOLECULE
Mol_72
 104 108 0 0 0
SMALL
GASTEIGER
Energy = 0

@<TRIPOS>ATOM
      1 C           3.1762   -4.8557   -0.1095 C.2     1  LIG11       0.3060
      2 C           3.8213   -4.5375   -2.4316 C.3     1  LIG11       0.0416
      3 C           3.0754   -2.5659   -1.0086 C.3     1  LIG11       0.0601
      4 C           1.6386   -2.0794   -0.6958 C.3     1  LIG11       0.1016
      5 C           1.1906   -2.4507    0.7433 C.3     1  LIG11       0.1016
      6 C           1.1406   -3.9814    0.9689 C.3     1  LIG11       0.0601
      7 C           2.7660   -5.5059    2.1939 C.3     1  LIG11       0.0416
      8 C           3.0235   -4.1777   -3.6988 C.ar    1  LIG11      -0.0293
      9 C           3.6697   -3.6229   -4.8069 C.ar    1  LIG11      -0.0449
     10 C           2.9529   -3.3502   -5.9772 C.ar    1  LIG11       0.0370
     11 C           1.5692   -3.5283   -6.0285 C.ar    1  LIG11      -0.0496
     12 C           0.9115   -4.0694   -4.9254 C.ar    1  LIG11      -0.0607
     13 C           1.6478   -4.4196   -3.7913 C.ar    1  LIG11      -0.0570
     14 C           3.6639   -2.8853   -7.2227 C.2     1  LIG11       0.2441
     15 C          -0.4233   -5.7594    8.1270 C.3     1  LIG11       0.0119
     16 C           0.0014   -7.1009    8.7781 C.3     1  LIG11      -0.0376
     17 C          -0.8658   -7.4123   10.0236 C.3     1  LIG11      -0.0545
     18 C           4.1448   -1.9777   -0.0384 C.3     1  LIG11      -0.0064
     19 C           5.5830   -2.2281   -0.5219 C.ar    1  LIG11      -0.0455
     20 C           6.2223   -3.4401   -0.2348 C.ar    1  LIG11      -0.0585
     21 C           7.5203   -3.6877   -0.6892 C.ar    1  LIG11      -0.0615
     22 C           8.2075   -2.7056   -1.4065 C.ar    1  LIG11      -0.0617
     23 C           7.5881   -1.4816   -1.6732 C.ar    1  LIG11      -0.0615
     24 C           6.2796   -1.2475   -1.2388 C.ar    1  LIG11      -0.0585
     25 C           0.1620   -4.7133    0.0053 C.3     1  LIG11      -0.0064
     26 C          -0.4724   -5.9749    0.6075 C.ar    1  LIG11      -0.0455
     27 C          -1.5901   -5.8438    1.4384 C.ar    1  LIG11      -0.0585
     28 C          -2.1918   -6.9737    1.9986 C.ar    1  LIG11      -0.0615
     29 C          -1.6818   -8.2453    1.7237 C.ar    1  LIG11      -0.0617
     30 C          -0.5743   -8.3841    0.8825 C.ar    1  LIG11      -0.0615
     31 C           0.0311   -7.2519    0.3286 C.ar    1  LIG11      -0.0585
     32 C           2.8611   -4.6767    3.4847 C.ar    1  LIG11      -0.0293
     33 C           1.8513   -4.7551    4.4478 C.ar    1  LIG11      -0.0449
     34 C           1.9787   -4.0802    5.6674 C.ar    1  LIG11       0.0370
     35 C           3.0680   -3.2324    5.8851 C.ar    1  LIG11      -0.0496
     36 C           4.0674   -3.1251    4.9160 C.ar    1  LIG11      -0.0607
     37 C           3.9683   -3.8532    3.7257 C.ar    1  LIG11      -0.0570
     38 C           0.9646   -4.2731    6.7702 C.2     1  LIG11       0.2441
     39 C          -0.5269   -8.8119   10.5947 C.3     1  LIG11      -0.0652
     40 C           5.4335   -3.1734   -8.8566 C.3     1  LIG11       0.0119
     41 C           6.9531   -3.4674   -8.8023 C.3     1  LIG11      -0.0376
     42 N           3.2469   -4.0131   -1.1799 N.am    1  LIG11      -0.2752
     43 N           2.4281   -4.6876    1.0188 N.am    1  LIG11      -0.2752
     44 N           4.8121   -3.4930   -7.5811 N.am    1  LIG11      -0.3113
     45 C           7.6422   -3.1596  -10.1589 C.3     1  LIG11      -0.0545
     46 N           0.4620   -5.5054    6.9963 N.am    1  LIG11      -0.3113
     47 C           7.7523   -1.6347  -10.4266 C.3     1  LIG11      -0.0652
     48 O           3.8519   -5.8696   -0.1692 O.2     1  LIG11      -0.2524
     49 O           1.6165   -0.6491   -0.8864 O.3     1  LIG11      -0.3873
     50 O          -0.1239   -1.9298    1.0331 O.3     1  LIG11      -0.3873
     51 O           3.1545   -1.9928   -7.8809 O.2     1  LIG11      -0.2702
     52 O           0.6526   -3.3038    7.4434 O.2     1  LIG11      -0.2702
     53 H           3.8753   -5.6366   -2.4706 H       1  LIG11       0.0514
     54 H           4.8535   -4.1628   -2.5069 H       1  LIG11       0.0514
     55 H           3.3024   -2.0876   -1.9787 H       1  LIG11       0.0531
     56 H           0.9690   -2.5377   -1.4434 H       1  LIG11       0.0638
     57 H           1.8804   -2.0332    1.4945 H       1  LIG11       0.0638
     58 H           0.6590   -4.0637    1.9576 H       1  LIG11       0.0531
     59 H           3.7401   -6.0154    2.1286 H       1  LIG11       0.0514
     60 H           2.0050   -6.2958    2.2899 H       1  LIG11       0.0514
     61 H           4.7324   -3.4081   -4.7681 H       1  LIG11       0.0628
     62 H           1.0147   -3.2644   -6.9241 H       1  LIG11       0.0625
     63 H          -0.1629   -4.2262   -4.9558 H       1  LIG11       0.0618
     64 H           1.1273   -4.9009   -2.9870 H       1  LIG11       0.0621
     65 H          -1.4655   -5.8112    7.7734 H       1  LIG11       0.0462
     66 H          -0.3553   -4.9673    8.8914 H       1  LIG11       0.0462
     67 H           1.0637   -7.0371    9.0702 H       1  LIG11       0.0280
     68 H          -0.1043   -7.9152    8.0423 H       1  LIG11       0.0280
     69 H          -1.9324   -7.3832    9.7459 H       1  LIG11       0.0263
     70 H          -0.6857   -6.6439   10.7941 H       1  LIG11       0.0263
     71 H           4.0658   -2.4289    0.9589 H       1  LIG11       0.0332
     72 H           3.9900   -0.8925    0.0763 H       1  LIG11       0.0332
     73 H           5.7178   -4.2015    0.3476 H       1  LIG11       0.0620
     74 H           7.9944   -4.6425   -0.4824 H       1  LIG11       0.0618
     75 H           9.2192   -2.8932   -1.7532 H       1  LIG11       0.0618
     76 H           8.1261   -0.7117   -2.2180 H       1  LIG11       0.0618
     77 H           5.8106   -0.2939   -1.4598 H       1  LIG11       0.0620
     78 H           0.7204   -5.0267   -0.8728 H       1  LIG11       0.0332
     79 H          -0.6549   -4.0563   -0.3322 H       1  LIG11       0.0332
     80 H          -1.9976   -4.8598    1.6485 H       1  LIG11       0.0620
     81 H          -3.0561   -6.8625    2.6460 H       1  LIG11       0.0618
     82 H          -2.1459   -9.1233    2.1627 H       1  LIG11       0.0618
     83 H          -0.1853   -9.3731    0.6591 H       1  LIG11       0.0618
     84 H           0.8923   -7.3752   -0.3215 H       1  LIG11       0.0620
     85 H           0.9631   -5.3450    4.2499 H       1  LIG11       0.0628
     86 H           3.1411   -2.6701    6.8119 H       1  LIG11       0.0625
     87 H           4.9229   -2.4803    5.0952 H       1  LIG11       0.0618
     88 H           4.7628   -3.7807    2.9910 H       1  LIG11       0.0621
     89 H           0.5442   -8.8784   10.8411 H       1  LIG11       0.0230
     90 H          -0.7705   -9.5933    9.8576 H       1  LIG11       0.0230
     91 H          -1.1129   -8.9953   11.5085 H       1  LIG11       0.0230
     92 H           5.2641   -2.1162   -9.1098 H       1  LIG11       0.0462
     93 H           4.9588   -3.7963   -9.6325 H       1  LIG11       0.0462
     94 H           7.0989   -4.5332   -8.5579 H       1  LIG11       0.0280
     95 H           7.4094   -2.8710   -7.9949 H       1  LIG11       0.0280
     96 H           5.1837   -4.2447   -7.0350 H       1  LIG11       0.1490
     97 H           7.0867   -3.6450  -10.9791 H       1  LIG11       0.0263
     98 H           8.6584   -3.5873  -10.1390 H       1  LIG11       0.0263
     99 H           0.7210   -6.2783    6.4166 H       1  LIG11       0.1490
    100 H           8.2118   -1.1283   -9.5634 H       1  LIG11       0.0230
    101 H           6.7686   -1.1818  -10.6184 H       1  LIG11       0.0230
    102 H           8.3829   -1.4562  -11.3105 H       1  LIG11       0.0230
    103 H           0.7413   -0.2738   -0.8846 H       1  LIG11       0.2100
    104 H          -0.1487   -0.9834    1.1388 H       1  LIG11       0.2100
@<TRIPOS>BOND
     1   102    47    1
     2    97    45    1
     3   101    47    1
     4    47    45    1
     5    47   100    1
     6    45    98    1
     7    45    41    1
     8    93    40    1
     9    92    40    1
    10    40    41    1
    11    40    44    1
    12    41    94    1
    13    41    95    1
    14    51    14    2
    15    44    14   am
    16    44    96    1
    17    14    10    1
    18    62    11    1
    19    11    10   ar
    20    11    12   ar
    21    10     9   ar
    22    63    12    1
    23    12    13   ar
    24     9    61    1
    25     9     8   ar
    26    13     8   ar
    27    13    64    1
    28     8     2    1
    29    54     2    1
    30    53     2    1
    31     2    42    1
    32    76    23    1
    33    55     3    1
    34    75    22    1
    35    23    22   ar
    36    23    24   ar
    37    77    24    1
    38    56     4    1
    39    22    21   ar
    40    24    19   ar
    41    42     3    1
    42    42     1   am
    43     3     4    1
    44     3    18    1
    45    49   103    1
    46    49     4    1
    47    78    25    1
    48     4     5    1
    49    21    74    1
    50    21    20   ar
    51    19    20   ar
    52    19    18    1
    53    79    25    1
    54    84    31    1
    55    20    73    1
    56    48     1    2
    57     1    43   am
    58    18    72    1
    59    18    71    1
    60    25    26    1
    61    25     6    1
    62    31    26   ar
    63    31    30   ar
    64    26    27   ar
    65    83    30    1
    66     5     6    1
    67     5    50    1
    68     5    57    1
    69    30    29   ar
    70     6    43    1
    71     6    58    1
    72    43     7    1
    73    50   104    1
    74    27    80    1
    75    27    28   ar
    76    29    28   ar
    77    29    82    1
    78    28    81    1
    79    59     7    1
    80     7    60    1
    81     7    32    1
    82    88    37    1
    83    32    37   ar
    84    32    33   ar
    85    37    36   ar
    86    85    33    1
    87    33    34   ar
    88    36    87    1
    89    36    35   ar
    90    34    35   ar
    91    34    38    1
    92    35    86    1
    93    99    46    1
    94    38    46   am
    95    38    52    2
    96    46    15    1
    97    65    15    1
    98    68    16    1
    99    15    16    1
   100    15    66    1
   101    16    67    1
   102    16    17    1
   103    69    17    1
   104    90    39    1
   105    17    39    1
   106    17    70    1
   107    39    89    1
   108    39    91    1
