@<TRIPOS>MOLECULE
Mol_88
 96 102 0 0 0
SMALL
GASTEIGER
Energy = 0

@<TRIPOS>ATOM
      1 C           2.8650   -4.9223    0.0499 C.2     1  LIG11       0.3060
      2 C           2.1892   -5.6317    2.2857 C.3     1  LIG11       0.0416
      3 C           0.8018   -3.9362    1.0014 C.3     1  LIG11       0.0601
      4 C           0.9969   -2.4143    0.8041 C.3     1  LIG11       0.1016
      5 C           1.5076   -2.0784   -0.6224 C.3     1  LIG11       0.1016
      6 C           2.9331   -2.6292   -0.8697 C.3     1  LIG11       0.0601
      7 C           3.7010   -4.6474   -2.2093 C.3     1  LIG11       0.0416
      8 C           2.5496   -4.8634    3.5696 C.ar    1  LIG11      -0.0293
      9 C           1.6831   -4.8596    4.6679 C.ar    1  LIG11      -0.0449
     10 C           2.0695   -4.2587    5.8707 C.ar    1  LIG11       0.0374
     11 C           3.2510   -3.5176    5.9418 C.ar    1  LIG11      -0.0496
     12 C           4.1112   -3.4942    4.8423 C.ar    1  LIG11      -0.0607
     13 C           3.7695   -4.1829    3.6732 C.ar    1  LIG11      -0.0570
     14 C           1.2331   -4.4373    7.1148 C.2     1  LIG11       0.2504
     15 C           6.2537   -3.8894   -8.2553 C.ar    1  LIG11       0.2217
     16 N           5.8730   -3.2259   -9.3634 N.ar    1  LIG11      -0.2226
     17 C           6.6757   -3.1942  -10.4439 C.ar    1  LIG11       0.0326
     18 C          -0.2013   -4.5405   -0.0245 C.3     1  LIG11      -0.0064
     19 C          -0.9191   -5.8016    0.4723 C.ar    1  LIG11      -0.0455
     20 C          -2.0486   -5.6777    1.2889 C.ar    1  LIG11      -0.0585
     21 C          -2.7199   -6.8164    1.7425 C.ar    1  LIG11      -0.0615
     22 C          -2.2664   -8.0867    1.3769 C.ar    1  LIG11      -0.0617
     23 C          -1.1468   -8.2154    0.5504 C.ar    1  LIG11      -0.0615
     24 C          -0.4728   -7.0759    0.1021 C.ar    1  LIG11      -0.0585
     25 C           3.9824   -2.0707    0.1372 C.3     1  LIG11      -0.0064
     26 C           5.4329   -2.2524   -0.3411 C.ar    1  LIG11      -0.0455
     27 C           6.1665   -3.3867    0.0269 C.ar    1  LIG11      -0.0585
     28 C           7.4964   -3.5350   -0.3778 C.ar    1  LIG11      -0.0615
     29 C           8.1014   -2.5541   -1.1678 C.ar    1  LIG11      -0.0617
     30 C           7.3737   -1.4226   -1.5456 C.ar    1  LIG11      -0.0615
     31 C           6.0447   -1.2754   -1.1361 C.ar    1  LIG11      -0.0585
     32 C           3.0973   -4.1581   -3.5373 C.ar    1  LIG11      -0.0293
     33 C           3.9321   -3.7429   -4.5771 C.ar    1  LIG11      -0.0449
     34 C           3.3952   -3.4056   -5.8247 C.ar    1  LIG11       0.0374
     35 C           2.0120   -3.2987   -5.9924 C.ar    1  LIG11      -0.0496
     36 C           1.1667   -3.6715   -4.9472 C.ar    1  LIG11      -0.0607
     37 C           1.7144   -4.1354   -3.7485 C.ar    1  LIG11      -0.0570
     38 C           4.3090   -3.1830   -7.0056 C.2     1  LIG11       0.2504
     39 C           7.9234   -3.8216  -10.3937 C.ar    1  LIG11      -0.0253
     40 C           8.2933   -4.4880   -9.2224 C.ar    1  LIG11       0.0326
     41 N           7.4462   -4.5102   -8.1755 N.ar    1  LIG11      -0.2226
     42 N           2.0183   -4.7552    1.1109 N.am    1  LIG11      -0.2752
     43 N           3.0533   -4.0853   -1.0123 N.am    1  LIG11      -0.2752
     44 N           0.9291   -5.6933    7.4986 N.am    1  LIG11      -0.2505
     45 C           0.2190   -5.9736    8.6882 C.ar    1  LIG11       0.2217
     46 N           5.3949   -3.9714   -7.1387 N.am    1  LIG11      -0.2505
     47 N          -0.4747   -5.0079    9.3215 N.ar    1  LIG11      -0.2226
     48 O           3.5349   -5.9416    0.0362 O.2     1  LIG11      -0.2524
     49 O          -0.2734   -1.7818    1.0674 O.3     1  LIG11      -0.3873
     50 O           1.5335   -0.6531   -0.8403 O.3     1  LIG11      -0.3873
     51 O           0.8996   -3.4384    7.7307 O.2     1  LIG11      -0.2698
     52 O           4.0106   -2.3055   -7.7991 O.2     1  LIG11      -0.2698
     53 C          -1.1717   -5.2927   10.4387 C.ar    1  LIG11       0.0326
     54 C          -1.1410   -6.5884   10.9613 C.ar    1  LIG11      -0.0253
     55 C          -0.3881   -7.5596   10.2963 C.ar    1  LIG11       0.0326
     56 N           0.2608   -7.2348    9.1609 N.ar    1  LIG11      -0.2226
     57 H           2.9874   -6.3839    2.1967 H       1  LIG11       0.0514
     58 H           1.2587   -6.2038    2.4241 H       1  LIG11       0.0514
     59 H           0.2718   -3.9857    1.9686 H       1  LIG11       0.0531
     60 H           1.7003   -2.0689    1.5786 H       1  LIG11       0.0638
     61 H           0.8509   -2.5116   -1.3941 H       1  LIG11       0.0638
     62 H           3.2178   -2.1686   -1.8324 H       1  LIG11       0.0531
     63 H           3.6126   -5.7433   -2.2836 H       1  LIG11       0.0514
     64 H           4.7742   -4.4085   -2.1538 H       1  LIG11       0.0514
     65 H           0.7083   -5.3314    4.6008 H       1  LIG11       0.0628
     66 H           3.5023   -2.9806    6.8523 H       1  LIG11       0.0625
     67 H           5.0482   -2.9483    4.9046 H       1  LIG11       0.0618
     68 H           4.4668   -4.1961    2.8446 H       1  LIG11       0.0621
     69 H           6.3437   -2.6816  -11.3399 H       1  LIG11       0.0831
     70 H           8.5916   -3.7915  -11.2469 H       1  LIG11       0.0648
     71 H           0.3417   -4.8148   -0.9287 H       1  LIG11       0.0332
     72 H          -0.9791   -3.8122   -0.3057 H       1  LIG11       0.0332
     73 H          -2.4123   -4.6941    1.5703 H       1  LIG11       0.0620
     74 H          -3.5944   -6.7138    2.3778 H       1  LIG11       0.0618
     75 H          -2.7836   -8.9721    1.7338 H       1  LIG11       0.0618
     76 H          -0.8007   -9.2015    0.2556 H       1  LIG11       0.0618
     77 H           0.3962   -7.1899   -0.5388 H       1  LIG11       0.0620
     78 H           3.8883   -2.5704    1.1091 H       1  LIG11       0.0332
     79 H           3.8104   -0.9948    0.3009 H       1  LIG11       0.0332
     80 H           5.7085   -4.1619    0.6314 H       1  LIG11       0.0620
     81 H           8.0606   -4.4129   -0.0776 H       1  LIG11       0.0618
     82 H           9.1331   -2.6708   -1.4864 H       1  LIG11       0.0618
     83 H           7.8432   -0.6571   -2.1565 H       1  LIG11       0.0618
     84 H           5.4914   -0.3915   -1.4376 H       1  LIG11       0.0620
     85 H           5.0032   -3.6872   -4.4166 H       1  LIG11       0.0628
     86 H           1.5972   -2.9447   -6.9316 H       1  LIG11       0.0625
     87 H           0.0891   -3.6108   -5.0700 H       1  LIG11       0.0618
     88 H           1.0464   -4.4890   -2.9851 H       1  LIG11       0.0621
     89 H           9.2526   -4.9880   -9.1450 H       1  LIG11       0.0831
     90 H           1.2657   -6.4674    6.9679 H       1  LIG11       0.1580
     91 H           5.6048   -4.6762   -6.4672 H       1  LIG11       0.1580
     92 H          -1.7504   -4.5126   10.9212 H       1  LIG11       0.0831
     93 H          -0.2167   -0.8382    1.1847 H       1  LIG11       0.2100
     94 H           0.6666   -0.2598   -0.8808 H       1  LIG11       0.2100
     95 H          -1.6902   -6.8355   11.8634 H       1  LIG11       0.0648
     96 H          -0.3209   -8.5712   10.6826 H       1  LIG11       0.0831
@<TRIPOS>BOND
     1    69    17    1
     2    70    39    1
     3    17    39   ar
     4    17    16   ar
     5    39    40   ar
     6    16    15   ar
     7    40    89    1
     8    40    41   ar
     9    15    41   ar
    10    15    46    1
    11    52    38    2
    12    46    38   am
    13    46    91    1
    14    38    34    1
    15    86    35    1
    16    35    34   ar
    17    35    36   ar
    18    34    33   ar
    19    87    36    1
    20    36    37   ar
    21    33    85    1
    22    33    32   ar
    23    37    32   ar
    24    37    88    1
    25    32     7    1
    26    63     7    1
    27     7    64    1
    28     7    43    1
    29    83    30    1
    30    62     6    1
    31    30    29   ar
    32    30    31   ar
    33    82    29    1
    34    84    31    1
    35    61     5    1
    36    29    28   ar
    37    31    26   ar
    38    43     6    1
    39    43     1   am
    40    71    18    1
    41    94    50    1
    42     6     5    1
    43     6    25    1
    44    50     5    1
    45     5     4    1
    46    77    24    1
    47    28    81    1
    48    28    27   ar
    49    26    27   ar
    50    26    25    1
    51    72    18    1
    52    18    19    1
    53    18     3    1
    54    27    80    1
    55    48     1    2
    56     1    42   am
    57    24    19   ar
    58    24    23   ar
    59    25    79    1
    60    25    78    1
    61    76    23    1
    62    19    20   ar
    63    23    22   ar
    64     4     3    1
    65     4    49    1
    66     4    60    1
    67     3    42    1
    68     3    59    1
    69    49    93    1
    70    42     2    1
    71    20    73    1
    72    20    21   ar
    73    22    75    1
    74    22    21   ar
    75    21    74    1
    76    57     2    1
    77     2    58    1
    78     2     8    1
    79    68    13    1
    80     8    13   ar
    81     8     9   ar
    82    13    12   ar
    83    65     9    1
    84     9    10   ar
    85    12    67    1
    86    12    11   ar
    87    10    11   ar
    88    10    14    1
    89    11    66    1
    90    90    44    1
    91    14    44   am
    92    14    51    2
    93    44    45    1
    94    45    56   ar
    95    45    47   ar
    96    56    55   ar
    97    47    53   ar
    98    55    96    1
    99    55    54   ar
   100    53    92    1
   101    53    54   ar
   102    54    95    1
