@<TRIPOS>MOLECULE
Mol_35
 80 84 0 0 0
SMALL
GASTEIGER
Energy = 0

@<TRIPOS>ATOM
      1 C           2.7211   -4.8752    0.2953 C.2     1  LIG11       0.3060
      2 C           2.1256   -5.2558    2.6401 C.3     1  LIG11       0.0450
      3 C           0.6818   -3.7978    1.1454 C.3     1  LIG11       0.0602
      4 C           0.8536   -2.2936    0.8261 C.3     1  LIG11       0.1016
      5 C           1.4178   -2.0562   -0.5997 C.3     1  LIG11       0.1016
      6 C           2.8319   -2.6654   -0.7801 C.3     1  LIG11       0.0602
      7 C           3.4698   -4.8036   -2.0150 C.3     1  LIG11       0.0450
      8 C           2.4641   -4.2937    3.7956 C.ar    1  LIG11       0.0115
      9 C           3.7511   -3.7520    3.8988 C.ar    1  LIG11      -0.0536
     10 C           4.1020   -2.9441    4.9856 C.ar    1  LIG11      -0.0612
     11 C           3.1730   -2.6937    5.9981 C.ar    1  LIG11      -0.0583
     12 C           1.8786   -3.2112    5.8901 C.ar    1  LIG11      -0.0196
     13 C           1.5125   -3.9681    4.7720 C.ar    1  LIG11       0.1248
     14 C          -0.2223   -5.4638    5.4934 C.3     1  LIG11       0.0788
     15 O           5.1523   -3.3160   -3.8218 O.3     1  LIG11      -0.4948
     16 O           0.1933   -4.4001    4.6220 O.3     1  LIG11      -0.4948
     17 C           5.8734   -2.2142   -4.3972 C.3     1  LIG11       0.0788
     18 C          -0.2601   -4.5360    0.1483 C.3     1  LIG11      -0.0064
     19 C          -0.8302   -5.8489    0.7135 C.ar    1  LIG11      -0.0455
     20 C          -2.0018   -5.8365    1.4807 C.ar    1  LIG11      -0.0585
     21 C          -2.5575   -7.0306    1.9507 C.ar    1  LIG11      -0.0615
     22 C          -1.9375   -8.2502    1.6662 C.ar    1  LIG11      -0.0617
     23 C          -0.7573   -8.2689    0.9183 C.ar    1  LIG11      -0.0615
     24 C          -0.2019   -7.0727    0.4528 C.ar    1  LIG11      -0.0585
     25 C           3.8774   -2.1053    0.2299 C.3     1  LIG11      -0.0064
     26 C           5.3322   -2.2857   -0.2432 C.ar    1  LIG11      -0.0455
     27 C           6.0185   -3.4819   -0.0020 C.ar    1  LIG11      -0.0585
     28 C           7.3493   -3.6333   -0.4045 C.ar    1  LIG11      -0.0615
     29 C           8.0110   -2.5847   -1.0487 C.ar    1  LIG11      -0.0617
     30 C           7.3343   -1.3869   -1.2924 C.ar    1  LIG11      -0.0615
     31 C           5.9980   -1.2461   -0.9053 C.ar    1  LIG11      -0.0585
     32 C           2.9719   -4.2495   -3.3650 C.ar    1  LIG11       0.0115
     33 C           1.6329   -4.4224   -3.7333 C.ar    1  LIG11      -0.0536
     34 C           1.1654   -3.9664   -4.9693 C.ar    1  LIG11      -0.0612
     35 C           2.0493   -3.3653   -5.8662 C.ar    1  LIG11      -0.0583
     36 C           3.3876   -3.1897   -5.5059 C.ar    1  LIG11      -0.0196
     37 C           3.8416   -3.5814   -4.2393 C.ar    1  LIG11       0.1248
     38 H           2.9471   -5.9878    2.6299 H       1  LIG11       0.0516
     39 H           1.2190   -5.8325    2.8783 H       1  LIG11       0.0516
     40 H           0.1198   -3.7813    2.0957 H       1  LIG11       0.0531
     41 H           1.5298   -1.8710    1.5884 H       1  LIG11       0.0638
     42 N           1.9139   -4.5661    1.3536 N.am    1  LIG11      -0.2751
     43 N           2.8950   -4.1308   -0.8367 N.am    1  LIG11      -0.2751
     44 H           0.7611   -2.5106   -1.3608 H       1  LIG11       0.0638
     45 H           3.1618   -2.2602   -1.7524 H       1  LIG11       0.0531
     46 H           3.2098   -5.8744   -2.0409 H       1  LIG11       0.0516
     47 H           4.5658   -4.7424   -1.9499 H       1  LIG11       0.0516
     48 O           3.3489   -5.9192    0.3554 O.2     1  LIG11      -0.2524
     49 O          -0.4436   -1.6792    0.9862 O.3     1  LIG11      -0.3873
     50 O           1.5075   -0.6442   -0.8827 O.3     1  LIG11      -0.3873
     51 H           4.4920   -3.9648    3.1354 H       1  LIG11       0.0622
     52 H           5.0976   -2.5137    5.0465 H       1  LIG11       0.0618
     53 H           3.4550   -2.0991    6.8628 H       1  LIG11       0.0619
     54 H           1.1577   -3.0199    6.6782 H       1  LIG11       0.0654
     55 H          -1.2334   -5.7701    5.1865 H       1  LIG11       0.0660
     56 H          -0.2569   -5.1358    6.5433 H       1  LIG11       0.0660
     57 H           0.4503   -6.3310    5.4044 H       1  LIG11       0.0660
     58 H           6.1860   -2.4245   -5.4305 H       1  LIG11       0.0660
     59 H           6.7833   -2.0569   -3.8048 H       1  LIG11       0.0660
     60 H           5.2658   -1.2962   -4.3626 H       1  LIG11       0.0660
     61 H           0.2831   -4.7719   -0.7743 H       1  LIG11       0.0332
     62 H          -1.1100   -3.8922   -0.1272 H       1  LIG11       0.0332
     63 H          -2.4913   -4.8958    1.7121 H       1  LIG11       0.0620
     64 H          -3.4726   -7.0126    2.5353 H       1  LIG11       0.0618
     65 H          -2.3714   -9.1793    2.0246 H       1  LIG11       0.0618
     66 H          -0.2726   -9.2152    0.6975 H       1  LIG11       0.0618
     67 H           0.7208   -7.1025   -0.1180 H       1  LIG11       0.0620
     68 H           3.7718   -2.6028    1.2023 H       1  LIG11       0.0332
     69 H           3.7015   -1.0309    0.3941 H       1  LIG11       0.0332
     70 H           5.5213   -4.3030    0.5031 H       1  LIG11       0.0620
     71 H           7.8717   -4.5663   -0.2152 H       1  LIG11       0.0618
     72 H           9.0456   -2.7000   -1.3586 H       1  LIG11       0.0618
     73 H           7.8479   -0.5670   -1.7859 H       1  LIG11       0.0618
     74 H           5.4818   -0.3162   -1.1211 H       1  LIG11       0.0620
     75 H           0.9444   -4.9190   -3.0613 H       1  LIG11       0.0622
     76 H           0.1193   -4.0815   -5.2363 H       1  LIG11       0.0618
     77 H           1.7001   -3.0356   -6.8407 H       1  LIG11       0.0619
     78 H           4.0532   -2.7462   -6.2356 H       1  LIG11       0.0654
     79 H          -0.4216   -0.7289    1.0388 H       1  LIG11       0.2100
     80 H           0.6607   -0.2135   -0.9473 H       1  LIG11       0.2100
@<TRIPOS>BOND
     1    77    35    1
     2    78    36    1
     3    35    36   ar
     4    35    34   ar
     5    36    37   ar
     6    58    17    1
     7    76    34    1
     8    34    33   ar
     9    17    60    1
    10    17    15    1
    11    17    59    1
    12    37    15    1
    13    37    32   ar
    14    33    32   ar
    15    33    75    1
    16    32     7    1
    17    46     7    1
    18     7    47    1
    19     7    43    1
    20    73    30    1
    21    45     6    1
    22    44     5    1
    23    72    29    1
    24    30    29   ar
    25    30    31   ar
    26    74    31    1
    27    29    28   ar
    28    80    50    1
    29    31    26   ar
    30    50     5    1
    31    43     6    1
    32    43     1   am
    33     6     5    1
    34     6    25    1
    35    61    18    1
    36     5     4    1
    37    28    71    1
    38    28    27   ar
    39    26    27   ar
    40    26    25    1
    41    62    18    1
    42    67    24    1
    43    27    70    1
    44    18    19    1
    45    18     3    1
    46    25    69    1
    47    25    68    1
    48     1    48    2
    49     1    42   am
    50    24    19   ar
    51    24    23   ar
    52    66    23    1
    53    19    20   ar
    54     4    49    1
    55     4     3    1
    56     4    41    1
    57    23    22   ar
    58    49    79    1
    59     3    42    1
    60     3    40    1
    61    42     2    1
    62    20    63    1
    63    20    21   ar
    64    22    21   ar
    65    22    65    1
    66    21    64    1
    67    38     2    1
    68     2    39    1
    69     2     8    1
    70    51     9    1
    71     8     9   ar
    72     8    13   ar
    73     9    10   ar
    74    16    13    1
    75    16    14    1
    76    13    12   ar
    77    10    52    1
    78    10    11   ar
    79    55    14    1
    80    57    14    1
    81    14    56    1
    82    12    11   ar
    83    12    54    1
    84    11    53    1
