@<TRIPOS>MOLECULE
Mol_89
 98 104 0 0 0
SMALL
GASTEIGER
Energy = 0

@<TRIPOS>ATOM
      1 C           2.8049   -4.9902    0.1662 C.2     1  LIG11       0.3060
      2 C           2.2856   -5.4895    2.4847 C.3     1  LIG11       0.0416
      3 C           0.8424   -3.8737    1.1553 C.3     1  LIG11       0.0601
      4 C           1.0600   -2.3694    0.8668 C.3     1  LIG11       0.1016
      5 C           1.5540   -2.1120   -0.5831 C.3     1  LIG11       0.1016
      6 C           2.9389   -2.7491   -0.8602 C.3     1  LIG11       0.0601
      7 C           3.5498   -4.8670   -2.1322 C.3     1  LIG11       0.0416
      8 C           2.4885   -4.6303    3.7450 C.ar    1  LIG11      -0.0293
      9 C           1.6359   -4.7815    4.8406 C.ar    1  LIG11      -0.0449
     10 C           1.8601   -4.0673    6.0238 C.ar    1  LIG11       0.0374
     11 C           2.8568   -3.0889    6.0747 C.ar    1  LIG11      -0.0496
     12 C           3.6887   -2.8987    4.9703 C.ar    1  LIG11      -0.0607
     13 C           3.5393   -3.7098    3.8412 C.ar    1  LIG11      -0.0570
     14 C           1.0397   -4.3788    7.2529 C.2     1  LIG11       0.2516
     15 C           6.0443   -3.6236   -8.0115 C.ar    1  LIG11       0.2942
     16 O           7.2550   -4.2078   -8.0185 O.2     1  LIG11      -0.4325
     17 C           7.8272   -3.7140   -9.1361 C.ar    1  LIG11       0.1167
     18 C          -0.1969   -4.5223    0.1959 C.3     1  LIG11      -0.0064
     19 C          -0.7787   -5.8386    0.7304 C.ar    1  LIG11      -0.0455
     20 C          -1.9181   -5.8156    1.5426 C.ar    1  LIG11      -0.0585
     21 C          -2.4811   -7.0081    2.0061 C.ar    1  LIG11      -0.0615
     22 C          -1.9018   -8.2332    1.6651 C.ar    1  LIG11      -0.0617
     23 C          -0.7581   -8.2621    0.8624 C.ar    1  LIG11      -0.0615
     24 C          -0.1956   -7.0683    0.4007 C.ar    1  LIG11      -0.0585
     25 C           4.0459   -2.2181    0.0954 C.3     1  LIG11      -0.0064
     26 C           5.4711   -2.3986   -0.4531 C.ar    1  LIG11      -0.0455
     27 C           6.2067   -3.5622   -0.1948 C.ar    1  LIG11      -0.0585
     28 C           7.5122   -3.6959   -0.6790 C.ar    1  LIG11      -0.0615
     29 C           8.0916   -2.6678   -1.4278 C.ar    1  LIG11      -0.0617
     30 C           7.3611   -1.5068   -1.6932 C.ar    1  LIG11      -0.0615
     31 C           6.0561   -1.3764   -1.2096 C.ar    1  LIG11      -0.0585
     32 C           2.8829   -4.4445   -3.4508 C.ar    1  LIG11      -0.0293
     33 C           3.6601   -3.9461   -4.4974 C.ar    1  LIG11      -0.0449
     34 C           3.0798   -3.6386   -5.7346 C.ar    1  LIG11       0.0374
     35 C           1.6930   -3.7088   -5.8932 C.ar    1  LIG11      -0.0496
     36 C           0.9016   -4.1705   -4.8407 C.ar    1  LIG11      -0.0607
     37 C           1.5025   -4.5696   -3.6437 C.ar    1  LIG11      -0.0570
     38 C           3.9553   -3.2468   -6.9011 C.2     1  LIG11       0.2516
     39 C           7.0701   -2.8784   -9.8521 C.ar    1  LIG11       0.0781
     40 N           5.9128   -2.8733   -9.0152 N.ar    1  LIG11      -0.2005
     41 C           7.3067   -2.1490  -11.1395 C.3     1  LIG11      -0.0192
     42 N           2.0506   -4.7006    1.2645 N.am    1  LIG11      -0.2752
     43 N           2.9820   -4.2157   -0.9424 N.am    1  LIG11      -0.2752
     44 N           0.7676   -5.6683    7.5279 N.am    1  LIG11      -0.2356
     45 C           0.0670   -6.1274    8.5714 C.ar    1  LIG11       0.2942
     46 N           5.1490   -3.8538   -7.0451 N.am    1  LIG11      -0.2356
     47 O           0.0442   -7.4322    8.8917 O.2     1  LIG11      -0.4325
     48 O           3.3878   -6.0617    0.1739 O.2     1  LIG11      -0.2524
     49 O          -0.2004   -1.7108    1.1156 O.3     1  LIG11      -0.3873
     50 O           1.6678   -0.6969   -0.8399 O.3     1  LIG11      -0.3873
     51 O           0.6878   -3.4560    7.9694 O.2     1  LIG11      -0.2697
     52 O           3.5444   -2.3949   -7.6723 O.2     1  LIG11      -0.2697
     53 C          -0.7198   -7.4612   10.0031 C.ar    1  LIG11       0.1167
     54 C          -1.2245   -6.2864   10.3890 C.ar    1  LIG11       0.0781
     55 N          -0.6316   -5.4627    9.3832 N.ar    1  LIG11      -0.2005
     56 C          -2.1340   -5.9038   11.5176 C.3     1  LIG11      -0.0192
     57 H           3.1922   -6.1132    2.4585 H       1  LIG11       0.0514
     58 H           1.4343   -6.1778    2.6028 H       1  LIG11       0.0514
     59 H           0.3383   -3.8757    2.1378 H       1  LIG11       0.0531
     60 H           1.7902   -1.9981    1.6051 H       1  LIG11       0.0638
     61 H           0.8503   -2.5293   -1.3222 H       1  LIG11       0.0638
     62 H           3.2198   -2.3379   -1.8457 H       1  LIG11       0.0531
     63 H           3.4395   -5.9629   -2.1362 H       1  LIG11       0.0514
     64 H           4.6290   -4.6521   -2.1445 H       1  LIG11       0.0514
     65 H           0.7969   -5.4658    4.7776 H       1  LIG11       0.0628
     66 H           2.9936   -2.4936    6.9728 H       1  LIG11       0.0625
     67 H           4.4570   -2.1308    4.9958 H       1  LIG11       0.0618
     68 H           4.2638   -3.6287    3.0464 H       1  LIG11       0.0621
     69 H           8.8410   -3.9972   -9.4129 H       1  LIG11       0.1049
     70 H           0.2859   -4.7466   -0.7544 H       1  LIG11       0.0332
     71 H          -1.0323   -3.8353   -0.0145 H       1  LIG11       0.0332
     72 H          -2.3747   -4.8690    1.8140 H       1  LIG11       0.0620
     73 H          -3.3696   -6.9826    2.6297 H       1  LIG11       0.0618
     74 H          -2.3399   -9.1601    2.0230 H       1  LIG11       0.0618
     75 H          -0.3074   -9.2136    0.5965 H       1  LIG11       0.0618
     76 H           0.6958   -7.1045   -0.2182 H       1  LIG11       0.0620
     77 H           3.9777   -2.7599    1.0374 H       1  LIG11       0.0332
     78 H           3.8977   -1.1511    0.3252 H       1  LIG11       0.0332
     79 H           5.7690   -4.3693    0.3846 H       1  LIG11       0.0620
     80 H           8.0795   -4.5990   -0.4735 H       1  LIG11       0.0618
     81 H           9.1062   -2.7693   -1.8021 H       1  LIG11       0.0618
     82 H           7.8077   -0.7052   -2.2740 H       1  LIG11       0.0618
     83 H           5.4988   -0.4699   -1.4229 H       1  LIG11       0.0620
     84 H           4.7237   -3.8002   -4.3453 H       1  LIG11       0.0628
     85 H           1.2355   -3.4181   -6.8341 H       1  LIG11       0.0625
     86 H          -0.1769   -4.2279   -4.9562 H       1  LIG11       0.0618
     87 H           0.8834   -4.9912   -2.8701 H       1  LIG11       0.0621
     88 H           8.2851   -2.4162  -11.5651 H       1  LIG11       0.0293
     89 H           7.2671   -1.0662  -10.9546 H       1  LIG11       0.0293
     90 H           6.5133   -2.4262  -11.8494 H       1  LIG11       0.0293
     91 H           1.1559   -6.3863    6.9582 H       1  LIG11       0.1595
     92 H           5.4325   -4.5620   -6.4070 H       1  LIG11       0.1595
     93 H          -0.1390   -0.7626    1.1772 H       1  LIG11       0.2100
     94 H           0.8304   -0.2441   -0.8660 H       1  LIG11       0.2100
     95 H          -0.8976   -8.3969   10.5298 H       1  LIG11       0.1049
     96 H          -1.6223   -5.1838   12.1718 H       1  LIG11       0.0293
     97 H          -2.4245   -6.7904   12.1005 H       1  LIG11       0.0293
     98 H          -3.0361   -5.4359   11.0965 H       1  LIG11       0.0293
@<TRIPOS>BOND
     1    90    41    1
     2    88    41    1
     3    41    89    1
     4    41    39    1
     5    39    17   ar
     6    39    40   ar
     7    69    17    1
     8    17    16   ar
     9    40    15   ar
    10    16    15   ar
    11    15    46    1
    12    52    38    2
    13    46    38   am
    14    46    92    1
    15    38    34    1
    16    85    35    1
    17    35    34   ar
    18    35    36   ar
    19    34    33   ar
    20    86    36    1
    21    36    37   ar
    22    33    84    1
    23    33    32   ar
    24    37    32   ar
    25    37    87    1
    26    32     7    1
    27    82    30    1
    28    64     7    1
    29    63     7    1
    30     7    43    1
    31    62     6    1
    32    81    29    1
    33    30    29   ar
    34    30    31   ar
    35    29    28   ar
    36    83    31    1
    37    61     5    1
    38    31    26   ar
    39    43     6    1
    40    43     1   am
    41    94    50    1
    42     6     5    1
    43     6    25    1
    44    50     5    1
    45    70    18    1
    46    28    80    1
    47    28    27   ar
    48     5     4    1
    49    26    27   ar
    50    26    25    1
    51    76    24    1
    52    27    79    1
    53    71    18    1
    54    25    78    1
    55    25    77    1
    56     1    48    2
    57     1    42   am
    58    18    19    1
    59    18     3    1
    60    24    19   ar
    61    24    23   ar
    62    75    23    1
    63    19    20   ar
    64    23    22   ar
    65     4    49    1
    66     4     3    1
    67     4    60    1
    68    49    93    1
    69     3    42    1
    70     3    59    1
    71    42     2    1
    72    20    72    1
    73    20    21   ar
    74    22    21   ar
    75    22    74    1
    76    21    73    1
    77    57     2    1
    78     2    58    1
    79     2     8    1
    80    68    13    1
    81     8    13   ar
    82     8     9   ar
    83    13    12   ar
    84    65     9    1
    85     9    10   ar
    86    12    67    1
    87    12    11   ar
    88    10    11   ar
    89    10    14    1
    90    11    66    1
    91    91    44    1
    92    14    44   am
    93    14    51    2
    94    44    45    1
    95    45    47   ar
    96    45    55   ar
    97    47    53   ar
    98    55    54   ar
    99    53    54   ar
   100    53    95    1
   101    54    56    1
   102    98    56    1
   103    56    97    1
   104    56    96    1
