@<TRIPOS>MOLECULE
Mol_90
 92 98 0 0 0
SMALL
GASTEIGER
Energy = 0

@<TRIPOS>ATOM
      1 C           2.6808   -5.1686   -0.1493 C.2     1  LIG11       0.3060
      2 C           3.2338   -5.1458   -2.4868 C.3     1  LIG11       0.0416
      3 C           2.8514   -2.9587   -1.2270 C.3     1  LIG11       0.0601
      4 C           1.5229   -2.2442   -0.8772 C.3     1  LIG11       0.1016
      5 C           1.1029   -2.4655    0.5998 C.3     1  LIG11       0.1016
      6 C           0.8284   -3.9566    0.9155 C.3     1  LIG11       0.0601
      7 C           2.2863   -5.6065    2.1935 C.3     1  LIG11       0.0416
      8 C           2.7611   -4.4852   -3.7887 C.ar    1  LIG11      -0.0293
      9 C           3.7033   -3.9518   -4.6687 C.ar    1  LIG11      -0.0449
     10 C           3.2963   -3.4213   -5.8959 C.ar    1  LIG11       0.0374
     11 C           1.9366   -3.3127   -6.2022 C.ar    1  LIG11      -0.0496
     12 C           0.9875   -3.8102   -5.3079 C.ar    1  LIG11      -0.0607
     13 C           1.4003   -4.4088   -4.1124 C.ar    1  LIG11      -0.0570
     14 C           4.3380   -2.9720   -6.8873 C.2     1  LIG11       0.2497
     15 C           0.2988   -6.8865    8.3285 C.ar    1  LIG11       0.1646
     16 S          -0.9094   -5.9583    9.2445 S.2     1  LIG11      -0.0605
     17 C          -1.0356   -7.4061   10.2942 C.ar    1  LIG11      -0.0030
     18 C           4.0538   -2.4697   -0.3708 C.3     1  LIG11      -0.0064
     19 C           5.4231   -2.8136   -0.9771 C.ar    1  LIG11      -0.0455
     20 C           5.9073   -2.0796   -2.0659 C.ar    1  LIG11      -0.0585
     21 C           7.1747   -2.3460   -2.5925 C.ar    1  LIG11      -0.0615
     22 C           7.9669   -3.3526   -2.0339 C.ar    1  LIG11      -0.0617
     23 C           7.4824   -4.1008   -0.9578 C.ar    1  LIG11      -0.0615
     24 C           6.2102   -3.8404   -0.4403 C.ar    1  LIG11      -0.0585
     25 C          -0.2771   -4.5924    0.0190 C.3     1  LIG11      -0.0064
     26 C          -0.8487   -5.8826    0.6337 C.ar    1  LIG11      -0.0455
     27 C          -1.9713   -5.8325    1.4696 C.ar    1  LIG11      -0.0585
     28 C          -2.4948   -7.0020    2.0298 C.ar    1  LIG11      -0.0615
     29 C          -1.8951   -8.2352    1.7618 C.ar    1  LIG11      -0.0617
     30 C          -0.7793   -8.2946    0.9226 C.ar    1  LIG11      -0.0615
     31 C          -0.2625   -7.1241    0.3584 C.ar    1  LIG11      -0.0585
     32 C           2.3135   -4.7754    3.4850 C.ar    1  LIG11      -0.0293
     33 C           1.5596   -5.1858    4.5857 C.ar    1  LIG11      -0.0449
     34 C           1.6477   -4.4884    5.7938 C.ar    1  LIG11       0.0374
     35 C           2.3850   -3.3051    5.8831 C.ar    1  LIG11      -0.0496
     36 C           3.1112   -2.8664    4.7766 C.ar    1  LIG11      -0.0607
     37 C           3.0957   -3.6197    3.5997 C.ar    1  LIG11      -0.0570
     38 C           0.9477   -5.0138    7.0204 C.2     1  LIG11       0.2497
     39 C          -0.2470   -8.4288    9.9383 C.ar    1  LIG11       0.0368
     40 N           0.4907   -8.0562    8.7599 N.ar    1  LIG11      -0.2330
     41 H          -0.1679   -9.3851   10.4527 H       1  LIG11       0.0835
     42 N           2.8075   -4.4260   -1.2822 N.am    1  LIG11      -0.2752
     43 N           2.0103   -4.8224    0.9827 N.am    1  LIG11      -0.2752
     44 N           5.4499   -3.7107   -7.0780 N.am    1  LIG11      -0.2607
     45 C           6.4442   -3.3302   -7.8953 C.ar    1  LIG11       0.1646
     46 N           0.9316   -6.3383    7.2776 N.am    1  LIG11      -0.2607
     47 S           6.7173   -1.6080   -8.2386 S.2     1  LIG11      -0.0605
     48 O           3.2217   -6.2625   -0.1563 O.2     1  LIG11      -0.2524
     49 O           1.7075   -0.8411   -1.1585 O.3     1  LIG11      -0.3873
     50 O          -0.0949   -1.7272    0.9196 O.3     1  LIG11      -0.3873
     51 O           4.1022   -1.9571   -7.5226 O.2     1  LIG11      -0.2698
     52 O           0.4485   -4.1804    7.7573 O.2     1  LIG11      -0.2698
     53 C           8.0400   -2.1740   -9.3151 C.ar    1  LIG11      -0.0030
     54 C           8.1938   -3.5038   -9.3679 C.ar    1  LIG11       0.0368
     55 N           7.2421   -4.1137   -8.4776 N.ar    1  LIG11      -0.2330
     56 H           8.9132   -4.0450   -9.9805 H       1  LIG11       0.0835
     57 H           2.8245   -6.1684   -2.5262 H       1  LIG11       0.0514
     58 H           4.3318   -5.2288   -2.4564 H       1  LIG11       0.0514
     59 H           3.0822   -2.5671   -2.2304 H       1  LIG11       0.0531
     60 H           0.7501   -2.6281   -1.5638 H       1  LIG11       0.0638
     61 H           1.8969   -2.1242    1.2838 H       1  LIG11       0.0638
     62 H           0.3720   -3.9221    1.9204 H       1  LIG11       0.0531
     63 H           3.2727   -6.0963    2.1813 H       1  LIG11       0.0514
     64 H           1.5273   -6.4008    2.2555 H       1  LIG11       0.0514
     65 H           4.7558   -3.9388   -4.4046 H       1  LIG11       0.0628
     66 H           1.6244   -2.8508   -7.1349 H       1  LIG11       0.0625
     67 H          -0.0694   -3.7343   -5.5472 H       1  LIG11       0.0618
     68 H           0.6572   -4.8160   -3.4370 H       1  LIG11       0.0621
     69 H          -1.7108   -7.4148   11.1466 H       1  LIG11       0.0709
     70 H           4.0008   -2.9376    0.6116 H       1  LIG11       0.0332
     71 H           4.0193   -1.3785   -0.2236 H       1  LIG11       0.0332
     72 H           5.3024   -1.2923   -2.5045 H       1  LIG11       0.0620
     73 H           7.5460   -1.7689   -3.4340 H       1  LIG11       0.0618
     74 H           8.9565   -3.5525   -2.4340 H       1  LIG11       0.0618
     75 H           8.0959   -4.8841   -0.5224 H       1  LIG11       0.0618
     76 H           5.8435   -4.4410    0.3865 H       1  LIG11       0.0620
     77 H           0.1192   -4.8371   -0.9758 H       1  LIG11       0.0332
     78 H          -1.1054   -3.8797   -0.1224 H       1  LIG11       0.0332
     79 H          -2.4478   -4.8821    1.6883 H       1  LIG11       0.0620
     80 H          -3.3686   -6.9539    2.6731 H       1  LIG11       0.0618
     81 H          -2.2951   -9.1434    2.2033 H       1  LIG11       0.0618
     82 H          -0.3144   -9.2523    0.7088 H       1  LIG11       0.0618
     83 H           0.6007   -7.1870   -0.2962 H       1  LIG11       0.0620
     84 H           0.9031   -6.0462    4.5103 H       1  LIG11       0.0628
     85 H           2.4010   -2.7367    6.8087 H       1  LIG11       0.0625
     86 H           3.6901   -1.9491    4.8370 H       1  LIG11       0.0618
     87 H           3.7118   -3.2971    2.7788 H       1  LIG11       0.0621
     88 H           5.5192   -4.6270   -6.6866 H       1  LIG11       0.1571
     89 H           1.4686   -6.9665    6.7164 H       1  LIG11       0.1571
     90 H           0.9001   -0.3368   -1.1481 H       1  LIG11       0.2100
     91 H           0.0325   -0.7840    0.9579 H       1  LIG11       0.2100
     92 H           8.6508   -1.4672   -9.8723 H       1  LIG11       0.0709
@<TRIPOS>BOND
     1    56    54    1
     2    92    53    1
     3    54    53   ar
     4    54    55   ar
     5    53    47   ar
     6    55    45   ar
     7    47    45   ar
     8    45    44    1
     9    51    14    2
    10    66    11    1
    11    44    14   am
    12    44    88    1
    13    14    10    1
    14    11    10   ar
    15    11    12   ar
    16    10     9   ar
    17    67    12    1
    18    12    13   ar
    19     9    65    1
    20     9     8   ar
    21    13     8   ar
    22    13    68    1
    23     8     2    1
    24    73    21    1
    25    21    20   ar
    26    21    22   ar
    27    57     2    1
    28    72    20    1
    29     2    58    1
    30     2    42    1
    31    74    22    1
    32    59     3    1
    33    20    19   ar
    34    22    23   ar
    35    60     4    1
    36    42     3    1
    37    42     1   am
    38     3     4    1
    39     3    18    1
    40    49    90    1
    41    49     4    1
    42    19    24   ar
    43    19    18    1
    44    77    25    1
    45    23    75    1
    46    23    24   ar
    47     4     5    1
    48    24    76    1
    49    18    71    1
    50    18    70    1
    51    83    31    1
    52    48     1    2
    53     1    43   am
    54    78    25    1
    55    25    26    1
    56    25     6    1
    57    31    26   ar
    58    31    30   ar
    59     5     6    1
    60     5    50    1
    61     5    61    1
    62    26    27   ar
    63    82    30    1
    64     6    43    1
    65     6    62    1
    66    50    91    1
    67    30    29   ar
    68    43     7    1
    69    27    79    1
    70    27    28   ar
    71    29    28   ar
    72    29    81    1
    73    28    80    1
    74    63     7    1
    75     7    64    1
    76     7    32    1
    77    87    37    1
    78    32    37   ar
    79    32    33   ar
    80    37    36   ar
    81    84    33    1
    82    33    34   ar
    83    36    86    1
    84    36    35   ar
    85    34    35   ar
    86    34    38    1
    87    35    85    1
    88    89    46    1
    89    38    46   am
    90    38    52    2
    91    46    15    1
    92    15    40   ar
    93    15    16   ar
    94    40    39   ar
    95    16    17   ar
    96    39    17   ar
    97    39    41    1
    98    17    69    1
