@<TRIPOS>MOLECULE
Mol_105
 90 95 0 0 0
SMALL
GASTEIGER
Energy = 0

@<TRIPOS>ATOM
      1 C           2.7108   -5.0138    0.1979 C.2     1  LIG11       0.3060
      2 C           2.1507   -5.5087    2.5180 C.3     1  LIG11       0.0416
      3 C           0.7696   -3.8527    1.1709 C.3     1  LIG11       0.0601
      4 C           1.0002   -2.3577    0.8465 C.3     1  LIG11       0.1016
      5 C           1.5143   -2.1457   -0.6023 C.3     1  LIG11       0.1016
      6 C           2.9188   -2.7622   -0.8064 C.3     1  LIG11       0.0601
      7 C           3.4912   -4.8971   -2.0896 C.3     1  LIG11       0.0416
      8 C           2.2749   -4.6839    3.8155 C.ar    1  LIG11      -0.0293
      9 C           1.4351   -4.9221    4.9090 C.ar    1  LIG11      -0.0449
     10 C           1.5948   -4.2019    6.1001 C.ar    1  LIG11       0.0374
     11 C           2.5196   -3.1572    6.1743 C.ar    1  LIG11      -0.0496
     12 C           3.3492   -2.8960    5.0841 C.ar    1  LIG11      -0.0607
     13 C           3.2573   -3.6946    3.9411 C.ar    1  LIG11      -0.0570
     14 C           0.7930   -4.5457    7.3333 C.2     1  LIG11       0.2493
     15 H           3.0743   -6.1080    2.5091 H       1  LIG11       0.0514
     16 C          -0.0231   -6.2396    8.8695 C.ar    1  LIG11       0.1251
     17 N          -0.7058   -5.3204    9.5805 N.ar    1  LIG11      -0.2399
     18 C          -0.2901   -4.5116    0.2365 C.3     1  LIG11      -0.0064
     19 C          -0.8333   -5.8275    0.8151 C.ar    1  LIG11      -0.0455
     20 C          -1.8786   -5.8138    1.7468 C.ar    1  LIG11      -0.0585
     21 C          -2.3864   -7.0114    2.2598 C.ar    1  LIG11      -0.0615
     22 C          -1.8506   -8.2332    1.8438 C.ar    1  LIG11      -0.0617
     23 C          -0.8069   -8.2533    0.9148 C.ar    1  LIG11      -0.0615
     24 C          -0.2973   -7.0547    0.4073 C.ar    1  LIG11      -0.0585
     25 C           3.9851   -2.2180    0.1822 C.3     1  LIG11      -0.0064
     26 C           5.4362   -2.3544   -0.3074 C.ar    1  LIG11      -0.0455
     27 C           6.0699   -1.2649   -0.9165 C.ar    1  LIG11      -0.0585
     28 C           7.4069   -1.3513   -1.3144 C.ar    1  LIG11      -0.0615
     29 C           8.1168   -2.5395   -1.1237 C.ar    1  LIG11      -0.0617
     30 C           7.4846   -3.6385   -0.5354 C.ar    1  LIG11      -0.0615
     31 C           6.1488   -3.5468   -0.1307 C.ar    1  LIG11      -0.0585
     32 C           3.1728   -4.1418   -3.3900 C.ar    1  LIG11      -0.0283
     33 C           1.8986   -4.2282   -3.9611 C.ar    1  LIG11      -0.0570
     34 C           1.5994   -3.5079   -5.1208 C.ar    1  LIG11      -0.0597
     35 C           2.5830   -2.7274   -5.7348 C.ar    1  LIG11      -0.0410
     36 C           3.8793   -2.6839   -5.2088 C.ar    1  LIG11       0.0248
     37 C           4.1500   -3.3530   -4.0095 C.ar    1  LIG11      -0.0364
     38 H           1.3112   -6.2168    2.5915 H       1  LIG11       0.0514
     39 H           0.2811   -3.8160    2.1609 H       1  LIG11       0.0531
     40 N           4.8614   -2.0065   -5.8532 N.pl3   1  LIG11      -0.3580
     41 H           4.6403   -1.3979   -6.6552 H       1  LIG11       0.1423
     42 N           1.9586   -4.7045    1.2956 N.am    1  LIG11      -0.2752
     43 N           2.9435   -4.2302   -0.8970 N.am    1  LIG11      -0.2752
     44 N           0.6634   -5.8414    7.6928 N.am    1  LIG11      -0.2664
     45 C          -1.3657   -5.6433   10.7103 C.ar    1  LIG11       0.0326
     46 H           1.7237   -1.9706    1.5830 H       1  LIG11       0.0638
     47 H           0.8464   -2.6121   -1.3456 H       1  LIG11       0.0638
     48 O           3.2343   -6.1159    0.1874 O.2     1  LIG11      -0.2524
     49 O          -0.2509   -1.6727    1.0664 O.3     1  LIG11      -0.3873
     50 O           1.5906   -0.7405   -0.9173 O.3     1  LIG11      -0.3873
     51 O           0.3205   -3.6130    7.9624 O.2     1  LIG11      -0.2698
     52 H           3.2424   -2.3153   -1.7580 H       1  LIG11       0.0531
     53 C          -1.3689   -6.9610   11.1802 C.ar    1  LIG11      -0.0322
     54 H           3.0752   -5.9103   -2.2181 H       1  LIG11       0.0514
     55 C          -0.6733   -7.9348   10.4568 C.ar    1  LIG11      -0.0542
     56 C           0.0089   -7.5713    9.2937 C.ar    1  LIG11      -0.0213
     57 H           4.5797   -5.0065   -1.9705 H       1  LIG11       0.0514
     58 H           0.6560   -5.6739    4.8424 H       1  LIG11       0.0628
     59 H           2.6035   -2.5628    7.0797 H       1  LIG11       0.0625
     60 H           4.0691   -2.0838    5.1315 H       1  LIG11       0.0618
     61 H           3.9777   -3.5473    3.1553 H       1  LIG11       0.0621
     62 H           0.1377   -4.7253   -0.7534 H       1  LIG11       0.0332
     63 H          -1.1459   -3.8337    0.0874 H       1  LIG11       0.0332
     64 H          -2.3050   -4.8711    2.0754 H       1  LIG11       0.0620
     65 H          -3.1985   -6.9942    2.9807 H       1  LIG11       0.0618
     66 H          -2.2442   -9.1644    2.2405 H       1  LIG11       0.0618
     67 H          -0.3918   -9.2011    0.5861 H       1  LIG11       0.0618
     68 H           0.5185   -7.0846   -0.3081 H       1  LIG11       0.0620
     69 H           3.9066   -2.7760    1.1118 H       1  LIG11       0.0332
     70 H           3.7921   -1.1582    0.4118 H       1  LIG11       0.0332
     71 H           5.5280   -0.3388   -1.0790 H       1  LIG11       0.0620
     72 H           7.8943   -0.4943   -1.7695 H       1  LIG11       0.0618
     73 H           9.1561   -2.6069   -1.4315 H       1  LIG11       0.0618
     74 H           8.0351   -4.5635   -0.3910 H       1  LIG11       0.0618
     75 H           5.6703   -4.4070    0.3274 H       1  LIG11       0.0620
     76 H           1.1368   -4.8524   -3.5047 H       1  LIG11       0.0621
     77 H           0.6021   -3.5554   -5.5481 H       1  LIG11       0.0618
     78 H           2.3338   -2.1590   -6.6252 H       1  LIG11       0.0636
     79 H           5.1275   -3.2510   -3.5495 H       1  LIG11       0.0639
     80 H           5.8458   -2.1112   -5.5649 H       1  LIG11       0.1423
     81 H           1.1122   -6.5353    7.1343 H       1  LIG11       0.1566
     82 H          -1.8945   -4.8627   11.2459 H       1  LIG11       0.0833
     83 H          -0.1708   -0.7245    1.1058 H       1  LIG11       0.2100
     84 H           0.7371   -0.3242   -0.9904 H       1  LIG11       0.2100
     85 H          -0.6604   -8.9669   10.7917 H       1  LIG11       0.0622
     86 H           0.5585   -8.3176    8.7298 H       1  LIG11       0.0652
     87 H          -3.1094   -7.7273   12.1894 H       1  LIG11       0.0278
     88 H          -2.2448   -6.4588   13.1150 H       1  LIG11       0.0278
     89 H          -1.5640   -8.1063   13.0179 H       1  LIG11       0.0278
     90 C          -2.1185   -7.3354   12.4621 C.3     1  LIG11      -0.0383
@<TRIPOS>BOND
     1    41    40    1
     2    78    35    1
     3    40    80    1
     4    40    36    1
     5    35    36   ar
     6    35    34   ar
     7    77    34    1
     8    36    37   ar
     9    34    33   ar
    10    37    79    1
    11    37    32   ar
    12    33    76    1
    13    33    32   ar
    14    32     7    1
    15    54     7    1
    16     7    57    1
    17     7    43    1
    18    72    28    1
    19    52     6    1
    20    73    29    1
    21    47     5    1
    22    28    29   ar
    23    28    27   ar
    24    29    30   ar
    25    71    27    1
    26    84    50    1
    27    50     5    1
    28    27    26   ar
    29    43     6    1
    30    43     1   am
    31     6     5    1
    32     6    25    1
    33    62    18    1
    34     5     4    1
    35    30    74    1
    36    30    31   ar
    37    68    24    1
    38    26    31   ar
    39    26    25    1
    40    31    75    1
    41    63    18    1
    42    25    70    1
    43    25    69    1
    44    48     1    2
    45     1    42   am
    46    18    19    1
    47    18     3    1
    48    24    19   ar
    49    24    23   ar
    50    67    23    1
    51    19    20   ar
    52     4    49    1
    53     4     3    1
    54     4    46    1
    55    23    22   ar
    56    49    83    1
    57     3    42    1
    58     3    39    1
    59    42     2    1
    60    20    64    1
    61    20    21   ar
    62    22    66    1
    63    22    21   ar
    64    21    65    1
    65    15     2    1
    66     2    38    1
    67     2     8    1
    68    61    13    1
    69     8    13   ar
    70     8     9   ar
    71    13    12   ar
    72    58     9    1
    73     9    10   ar
    74    12    60    1
    75    12    11   ar
    76    10    11   ar
    77    10    14    1
    78    11    59    1
    79    81    44    1
    80    14    44   am
    81    14    51    2
    82    44    16    1
    83    86    56    1
    84    16    56   ar
    85    16    17   ar
    86    56    55   ar
    87    17    45   ar
    88    55    85    1
    89    55    53   ar
    90    45    53   ar
    91    45    82    1
    92    53    90    1
    93    87    90    1
    94    90    89    1
    95    90    88    1
