@<TRIPOS>MOLECULE
Mol_26
 72 76 0 0 0
SMALL
GASTEIGER
Energy = 0

@<TRIPOS>ATOM
      1 C           2.7971   -4.8581   -0.0970 C.2     1  LIG11       0.3060
      2 C           3.5851   -4.6895   -2.3961 C.3     1  LIG11       0.0417
      3 C           3.0434   -2.6007   -1.0533 C.3     1  LIG11       0.0601
      4 C           1.6594   -1.9340   -0.8588 C.3     1  LIG11       0.1016
      5 C           1.0879   -2.1965    0.5598 C.3     1  LIG11       0.1016
      6 C           0.8242   -3.6988    0.8155 C.3     1  LIG11       0.0601
      7 C           2.1802   -5.3214    2.2183 C.3     1  LIG11       0.0417
      8 C           2.8394   -4.2423   -3.6662 C.ar    1  LIG11      -0.0273
      9 C           1.5131   -4.6347   -3.8819 C.ar    1  LIG11      -0.0569
     10 C           0.8220   -4.2348   -5.0301 C.ar    1  LIG11      -0.0587
     11 C           1.4843   -3.5043   -6.0191 C.ar    1  LIG11      -0.0264
     12 C           2.8144   -3.1249   -5.8233 C.ar    1  LIG11       0.1237
     13 C           3.4743   -3.4583   -4.6377 C.ar    1  LIG11      -0.0218
     14 F           3.4552   -2.4456   -6.7709 F       1  LIG11      -0.2055
     15 H           3.5136   -5.7889   -2.4041 H       1  LIG11       0.0514
     16 H           4.6548   -4.4396   -2.4670 H       1  LIG11       0.0514
     17 F           0.7720   -3.1825    6.4201 F       1  LIG11      -0.2055
     18 C           4.1033   -2.1180   -0.0178 C.3     1  LIG11      -0.0064
     19 C           5.5493   -2.3359   -0.4962 C.ar    1  LIG11      -0.0455
     20 C           6.1916   -3.5627   -0.2904 C.ar    1  LIG11      -0.0585
     21 C           7.5134   -3.7496   -0.7075 C.ar    1  LIG11      -0.0615
     22 C           8.2042   -2.7110   -1.3378 C.ar    1  LIG11      -0.0617
     23 C           7.5697   -1.4839   -1.5470 C.ar    1  LIG11      -0.0615
     24 C           6.2475   -1.3008   -1.1309 C.ar    1  LIG11      -0.0585
     25 C          -0.1911   -4.3242   -0.1842 C.3     1  LIG11      -0.0064
     26 C          -0.7792   -5.6548    0.3149 C.ar    1  LIG11      -0.0455
     27 C          -1.8462   -5.6446    1.2215 C.ar    1  LIG11      -0.0585
     28 C          -2.4097   -6.8423    1.6705 C.ar    1  LIG11      -0.0615
     29 C          -1.9085   -8.0648    1.2148 C.ar    1  LIG11      -0.0617
     30 C          -0.8450   -8.0833    0.3089 C.ar    1  LIG11      -0.0615
     31 C          -0.2783   -6.8831   -0.1335 C.ar    1  LIG11      -0.0585
     32 C           2.4452   -4.4008    3.4237 C.ar    1  LIG11      -0.0273
     33 C           3.7073   -3.8212    3.6039 C.ar    1  LIG11      -0.0569
     34 C           3.9749   -3.0216    4.7206 C.ar    1  LIG11      -0.0587
     35 C           2.9838   -2.8122    5.6825 C.ar    1  LIG11      -0.0264
     36 C           1.7184   -3.3765    5.5048 C.ar    1  LIG11       0.1237
     37 C           1.4451   -4.1458    4.3710 C.ar    1  LIG11      -0.0218
     38 H           3.3951   -2.1764   -2.0103 H       1  LIG11       0.0531
     39 H           0.9883   -2.3273   -1.6408 H       1  LIG11       0.0638
     40 H           1.7933   -1.8558    1.3358 H       1  LIG11       0.0638
     41 H           0.2796   -3.6899    1.7752 H       1  LIG11       0.0531
     42 N           3.0384   -4.0634   -1.1804 N.am    1  LIG11      -0.2752
     43 N           2.0061   -4.5541    0.9733 N.am    1  LIG11      -0.2752
     44 H           3.0258   -6.0266    2.2038 H       1  LIG11       0.0514
     45 H           1.2761   -5.9268    2.3882 H       1  LIG11       0.0514
     46 H           1.0104   -5.2676   -3.1627 H       1  LIG11       0.0621
     47 H          -0.2248   -4.4963   -5.1570 H       1  LIG11       0.0619
     48 O           3.3448   -5.9478   -0.0860 O.2     1  LIG11      -0.2524
     49 O           1.8189   -0.5197   -1.0923 O.3     1  LIG11      -0.3873
     50 O          -0.1607   -1.5026    0.7664 O.3     1  LIG11      -0.3873
     51 H           0.9739   -3.2325   -6.9375 H       1  LIG11       0.0646
     52 H           4.4883   -3.1053   -4.4866 H       1  LIG11       0.0649
     53 H           3.9775   -2.6453    0.9357 H       1  LIG11       0.0332
     54 H           3.9701   -1.0433    0.1839 H       1  LIG11       0.0332
     55 H           5.6666   -4.3778    0.1971 H       1  LIG11       0.0620
     56 H           8.0063   -4.7027   -0.5413 H       1  LIG11       0.0618
     57 H           9.2301   -2.8558   -1.6637 H       1  LIG11       0.0618
     58 H           8.1051   -0.6728   -2.0319 H       1  LIG11       0.0618
     59 H           5.7682   -0.3422   -1.3031 H       1  LIG11       0.0620
     60 H           0.3047   -4.5024   -1.1407 H       1  LIG11       0.0332
     61 H          -1.0292   -3.6345   -0.3730 H       1  LIG11       0.0332
     62 H          -2.2462   -4.7012    1.5792 H       1  LIG11       0.0620
     63 H          -3.2381   -6.8243    2.3724 H       1  LIG11       0.0618
     64 H          -2.3449   -8.9962    1.5639 H       1  LIG11       0.0618
     65 H          -0.4598   -9.0324   -0.0520 H       1  LIG11       0.0618
     66 H           0.5526   -6.9153   -0.8313 H       1  LIG11       0.0620
     67 H           4.4948   -3.9972    2.8787 H       1  LIG11       0.0621
     68 H           4.9533   -2.5660    4.8446 H       1  LIG11       0.0619
     69 H           3.1897   -2.2162    6.5662 H       1  LIG11       0.0646
     70 H           0.4463   -4.5474    4.2415 H       1  LIG11       0.0649
     71 H           0.9934   -0.0478   -1.1430 H       1  LIG11       0.2100
     72 H          -0.0675   -0.5602    0.8678 H       1  LIG11       0.2100
@<TRIPOS>BOND
     1    51    11    1
     2    14    12    1
     3    11    12   ar
     4    11    10   ar
     5    12    13   ar
     6    47    10    1
     7    10     9   ar
     8    13    52    1
     9    13     8   ar
    10     9     8   ar
    11     9    46    1
    12     8     2    1
    13    16     2    1
    14    15     2    1
    15     2    42    1
    16    58    23    1
    17    38     3    1
    18    57    22    1
    19    39     4    1
    20    23    22   ar
    21    23    24   ar
    22    22    21   ar
    23    59    24    1
    24    42     3    1
    25    42     1   am
    26    71    49    1
    27    60    25    1
    28    24    19   ar
    29    49     4    1
    30     3     4    1
    31     3    18    1
    32     4     5    1
    33    66    31    1
    34    21    56    1
    35    21    20   ar
    36    19    20   ar
    37    19    18    1
    38    61    25    1
    39    20    55    1
    40    25    26    1
    41    25     6    1
    42    31    30   ar
    43    31    26   ar
    44     1    48    2
    45     1    43   am
    46    65    30    1
    47    18    54    1
    48    18    53    1
    49    30    29   ar
    50    26    27   ar
    51     5    50    1
    52     5     6    1
    53     5    40    1
    54    50    72    1
    55     6    43    1
    56     6    41    1
    57    43     7    1
    58    29    64    1
    59    29    28   ar
    60    27    62    1
    61    27    28   ar
    62    28    63    1
    63    44     7    1
    64     7    45    1
    65     7    32    1
    66    67    33    1
    67    32    33   ar
    68    32    37   ar
    69    33    34   ar
    70    70    37    1
    71    37    36   ar
    72    34    68    1
    73    34    35   ar
    74    36    35   ar
    75    36    17    1
    76    35    69    1
