@<TRIPOS>MOLECULE
CPD_12-b
 65 68 0 0 0
SMALL
GASTEIGER

@<TRIPOS>ATOM
      1 C1          3.8963   -6.3612   15.2930 C.ar    3  NAPHTHALENE33   -0.1003
      2 C2          4.0706   -5.1464   15.9614 C.ar    3  NAPHTHALENE33   -0.1313
      3 C3          5.3413   -4.5719   16.0402 C.ar    3  NAPHTHALENE33   -0.0988
      4 C4          6.4351   -5.2139   15.4525 C.ar    3  NAPHTHALENE33   -0.1357
      5 ****        6.7418   -9.3938   10.3736 H       2  APM222      0.1285
      6 ****        5.1555  -10.5602    8.6732 H       2  APM222      0.1138
      7 ****        6.0948   -9.2439    7.9970 H       2  APM222      0.1117
      8 ****        2.7556  -10.4087    8.5009 H       2  APM222      0.1333
      9 ****        5.1075   -6.9007    7.7531 H       2  APM222      0.1648
     10 ****        3.0722   -5.6694    7.0899 H       2  APM222      0.1649
     11 ****        0.8626   -6.7530    7.2338 H       2  APM222      0.1352
     12 ****        3.9285   -9.9597   10.9977 H       2  APM222      0.2265
     13 ****       -1.5884   -9.3622    7.0668 H       2  APM222      0.2724
     14 ****       -0.5324   -8.0464    6.5329 H       2  APM222      0.2963
     15 ****        0.9034  -10.8732    9.0813 H       2  APM222      0.2978
     16 ****       -0.7530  -11.0010    8.4743 H       2  APM222      0.2728
     17 C2          9.2977   -5.1466   10.0739 C.3     2  APM222     -0.1530
     18 C3          8.8427   -6.6298   10.1497 C.3     2  APM222     -0.1743
     19 C4          7.5658   -6.8946    9.3098 C.3     2  APM222     -0.0161
     20 N5          6.3516   -6.6178   10.0799 N.am    2  APM222     -0.3347
     21 C6          6.0152   -5.2299   10.4079 C.3     2  APM222     -0.0119
     22 C7          7.0424   -4.6072   11.3912 C.3     2  APM222     -0.1729
     23 C8          8.3400   -4.0879   10.7080 C.3     2  APM222     -0.1552
     24 H3         10.2854   -5.0792   10.5625 H       2  APM222      0.0881
     25 S           5.6468  -10.4387   12.6464 S.O2    1  TOS111      2.6239
     26 O1          6.9277  -11.0448   12.3372 O.2     1  TOS111     -0.8664
     27 O2          4.6604  -11.1967   13.3910 O.2     1  TOS111     -0.8662
     28 C5          7.3572   -7.0933   14.2077 C.ar    3  NAPHTHALENE33   -0.1324
     29 C6          7.1782   -8.3079   13.5391 C.ar    3  NAPHTHALENE33   -0.0600
     30 C7          5.9090   -8.8881   13.4725 C.ar    3  NAPHTHALENE33   -0.7292
     31 C8          4.8173   -8.2268   14.0395 C.ar    3  NAPHTHALENE33    0.0333
     32 C9          4.9898   -7.0087   14.7067 C.ar    3  NAPHTHALENE33   -0.0541
     33 C10         6.2666   -6.4360   14.7895 C.ar    3  NAPHTHALENE33    0.0106
     34 H1          2.9027   -6.7955   15.2360 H       3  NAPHTHALENE33    0.1359
     35 C           5.5130   -7.6188   10.4926 C.2     2  APM222      0.2714
     36 CA          5.7013   -9.0918   10.1859 C.3     2  APM222      0.0442
     37 CB          5.3052   -9.4708    8.7257 C.3     2  APM222     -0.1228
     38 CG          4.0523   -8.7222    8.2462 C.ar    2  APM222     -0.0555
     39 CD1         2.8094   -9.3622    8.2252 C.ar    2  APM222     -0.0786
     40 CD2         4.1451   -7.3968    7.8061 C.ar    2  APM222     -0.0543
     41 CE1         1.6503   -8.6778    7.8389 C.ar    2  APM222     -0.1496
     42 CE2         2.9961   -6.7000    7.4248 C.ar    2  APM222     -0.1059
     43 CZ          1.7500   -7.3285    7.4752 C.ar    2  APM222     -0.0842
     44 CF          0.3119   -9.3920    7.8101 C.3     2  APM222      0.3336
     45 O           4.5142   -7.3788   11.1537 O.2     2  APM222     -0.3695
     46 N           4.9128   -9.8548   11.1485 N.3     2  APM222     -0.8274
     47 NG1        -0.6678   -8.8993    7.0944 N.3     2  APM222     -0.3268
     48 NG2         0.1449  -10.4954    8.4960 N.3     2  APM222     -0.3250
     49 H4          9.4662   -4.8959    9.0118 H       2  APM222      0.0779
     50 H5          8.6975   -6.9603   11.1897 H       2  APM222      0.0982
     51 H6          9.6683   -7.2359    9.7357 H       2  APM222      0.0891
     52 H7          7.6291   -7.9178    8.9338 H       2  APM222      0.0847
     53 H8          7.5672   -6.2559    8.4134 H       2  APM222      0.0840
     54 H11         5.0150   -5.1403   10.8603 H       2  APM222      0.1186
     55 H12         5.9778   -4.6402    9.4788 H       2  APM222      0.0739
     56 H13         7.2723   -5.3211   12.1937 H       2  APM222      0.1009
     57 H14         6.5644   -3.7327   11.8667 H       2  APM222      0.0895
     58 H2          3.2198   -4.6506   16.4188 H       3  NAPHTHALENE33    0.1405
     59 H3          5.4774   -3.6274   16.5586 H       3  NAPHTHALENE33    0.1415
     60 H4          7.4158   -4.7525   15.5178 H       3  NAPHTHALENE33    0.1404
     61 H5          8.3533   -6.6647   14.2681 H       3  NAPHTHALENE33    0.1418
     62 H6          8.0261   -8.7990   13.0744 H       3  NAPHTHALENE33    0.1477
     63 H8          3.8317   -8.6722   13.9555 H       3  NAPHTHALENE33    0.1413
     64 H15         8.0469   -3.3505    9.9412 H       2  APM222      0.0778
     65 H16         8.9048   -3.5305   11.4757 H       2  APM222      0.0853
@<TRIPOS>BOND
     1    25    30    1
     2    28    29   ar
     3    28    33   ar
     4    28    61    1
     5    33     4   ar
     6    33    32   ar
     7    32     1   ar
     8    36     5    1
     9    37     6    1
    10    37     7    1
    11    39     8    1
    12    40     9    1
    13    42    10    1
    14    43    11    1
    15    46    12    1
    16    47    13    1
    17    47    14    1
    18    48    15    1
    19    48    16    1
    20    35    20   am
    21    23    17    1
    22    22    23    1
    23    23    64    1
    24    23    65    1
    25    21    22    1
    26    22    56    1
    27    22    57    1
    28    20    21    1
    29    21    54    1
    30    32    31   ar
    31    25    27    2
    32    25    26    2
    33    31    30   ar
    34    31    63    1
    35    30    29   ar
    36    29    62    1
    37     1     2   ar
    38     1    34    1
    39    35    45    2
    40    35    36    1
    41    36    46    1
    42    36    37    1
    43    37    38    1
    44    38    40   ar
    45    38    39   ar
    46    39    41   ar
    47    41    44    1
    48    41    43   ar
    49    43    42   ar
    50    42    40   ar
    51    44    48    1
    52    44    47    1
    53    21    55    1
    54    20    19    1
    55    19    18    1
    56    19    52    1
    57    19    53    1
    58    18    17    1
    59    46    25    1
    60    18    50    1
    61    18    51    1
    62    17    24    1
    63     2     3   ar
    64     2    58    1
    65     3     4   ar
    66     3    59    1
    67     4    60    1
    68    17    49    1
