@<TRIPOS>MOLECULE
GHSM.24.pdb
 86 91 0 0 0
SMALL
GASTEIGER

@<TRIPOS>ATOM
      1  C1        -0.9580    1.1840    1.8750 C.ar    1  BEN1       -0.0568
      2  C2         0.2110    1.8970    2.1580 C.ar    1  BEN1       -0.0614
      3  C3         0.2170    3.2910    2.0710 C.ar    1  BEN1       -0.0600
      4  C4        -0.9420    3.9700    1.6870 C.ar    1  BEN1       -0.0400
      5  C5        -2.1170    3.2600    1.4170 C.ar    1  BEN1        0.0398
      6  C6        -2.1290    1.8640    1.5220 C.ar    1  BEN1       -0.0259
      7  C1        -7.5040    6.5650   -2.8560 C.ar    5  BEN5       -0.0561
      8  C2        -7.8870    7.8530   -3.2450 C.ar    5  BEN5       -0.0614
      9  C3        -9.0950    8.0500   -3.9190 C.ar    5  BEN5       -0.0617
     10  C4        -9.9180    6.9570   -4.2060 C.ar    5  BEN5       -0.0614
     11 N11_       -3.2970    3.9520    1.0260 N.am    1  BEN1       -0.2653
     12 C12_       -3.4340    1.1030    1.2530 C.3     1  BEN1       -0.0238
     13 C13_       -3.7580    1.0910   -0.2640 C.3     1  BEN1       -0.0219
     14 C14_       -3.4930    2.4570   -0.9520 C.3     1  BEN1        0.1002
     15 C15_       -3.9960    3.5830   -0.0750 C.2     1  BEN1        0.2404
     16 O16_       -5.0360    4.1370   -0.3970 O.2     1  BEN1       -0.2732
     17 C17_       -3.8260    5.0250    1.8680 C.3     1  BEN1        0.0449
     18  C5        -9.5290    5.6700   -3.8230 C.ar    5  BEN5       -0.0561
     19  C6        -8.3230    5.4670   -3.1430 C.ar    5  BEN5       -0.0179
     20  H20       -0.9490    0.1000    1.9320 H       1  BEN1        0.0621
     21  H21        1.1140    1.3670    2.4450 H       1  BEN1        0.0618
     22 N22_       -4.1890    2.4760   -2.2360 N.am    1  BEN1       -0.3039
     23  H23        1.1220    3.8460    2.2990 H       1  BEN1        0.0618
     24  C1        -7.4810    4.2910    2.7910 C.ar    2  BEN2       -0.0537
     25  C2        -7.3180    3.2620    3.7230 C.ar    2  BEN2       -0.0170
     26  C3        -6.0360    2.8990    4.1430 C.ar    2  BEN2       -0.0537
     27  C4        -4.9170    3.5060    3.5670 C.ar    2  BEN2       -0.0565
     28  C5        -5.0730    4.4690    2.5650 C.ar    2  BEN2       -0.0297
     29  C6        -6.3600    4.8890    2.2080 C.ar    2  BEN2       -0.0565
     30  H30       -0.9240    5.0510    1.5910 H       1  BEN1        0.0636
     31  H31       -6.5630    6.4240   -2.3320 H       5  BEN5        0.0621
     32  H32       -7.2450    8.7000   -3.0240 H       5  BEN5        0.0618
     33  H33       -9.3940    9.0500   -4.2190 H       5  BEN5        0.0618
     34  H34      -10.8580    7.1080   -4.7280 H       5  BEN5        0.0618
     35  H35       -4.2440    1.6090    1.7990 H       1  BEN1        0.0314
     36  C1        -9.4580    3.2470    4.9870 C.ar    3  BEN3       -0.0532
     37  C2        -8.4940    2.5390    4.2630 C.ar    3  BEN3       -0.0026
     38  C3        -8.6310    1.1580    4.0680 C.ar    3  BEN3        0.0787
     39  C4        -9.6870    0.4830    4.6910 C.ar    3  BEN3       -0.0459
     40  C5       -10.6360    1.1850    5.4390 C.ar    3  BEN3       -0.0609
     41  C6       -10.5320    2.5720    5.5730 C.ar    3  BEN3       -0.0611
     42  H42       -3.3860    0.0700    1.6360 H       1  BEN1        0.0314
     43  H43       -4.8170    0.8160   -0.3980 H       1  BEN1        0.0291
     44  H44       -3.1440    0.3260   -0.7670 H       1  BEN1        0.0291
     45  H45       -2.4130    2.6180   -1.1100 H       1  BEN1        0.0595
     46  N1        -7.0940    0.8200    2.1330 N.ar    4  TET4       -0.0576
     47  N2        -6.3270   -0.1830    1.6630 N.ar    4  TET4        0.1370
     48  N3        -6.4820   -1.2200    2.5030 N.ar    4  TET4        0.0227
     49  N4        -7.3860   -0.8340    3.5260 N.ar    4  TET4       -0.0564
     50  C1        -7.6680    0.3640    3.2090 C.ar    4  TET4        0.3568
     51  H51       -4.0630    5.9090    1.2560 H       1  BEN1        0.0518
     52  H52       -3.1180    5.3420    2.6480 H       1  BEN1        0.0518
     53 C53_       -3.6680    1.8380   -3.3010 C.2     1  BEN1        0.2154
     54 O54_       -2.6060    1.2430   -3.2300 O.2     1  BEN1       -0.2757
     55 C55_       -4.4090    1.8640   -4.6150 C.3     1  BEN1        0.0417
     56 C56_       -5.8340    1.2480   -4.4820 C.3     1  BEN1        0.0219
     57  H57      -10.1700    4.8270   -4.0600 H       5  BEN5        0.0621
     58  H58       -5.0790    2.9280   -2.2820 H       1  BEN1        0.1494
     59 C59_       -5.6990   -0.2040   -3.9290 C.3     1  BEN1       -0.0466
     60 N60_       -6.6610    2.0360   -3.5250 N.3     1  BEN1       -0.3078
     61 C61_       -6.5080    1.1880   -5.8830 C.3     1  BEN1       -0.0466
     62  H62       -8.4770    4.6200    2.5120 H       2  BEN2        0.0624
     63  C63       -7.1240    3.3980   -3.8970 C.3     1  BEN1        0.0266
     64  H64       -5.9070    2.1420    4.9100 H       2  BEN2        0.0624
     65  H65       -3.9230    3.2200    3.8980 H       2  BEN2        0.0621
     66  H66       -6.4960    5.6750    1.4720 H       2  BEN2        0.0621
     67  H67       -9.3710    4.3230    5.1010 H       3  BEN3        0.0624
     68  H68       -9.7760   -0.5940    4.5900 H       3  BEN3        0.0626
     69  H69      -11.4550    0.6530    5.9140 H       3  BEN3        0.0618
     70  H70      -11.2820    3.1230    6.1330 H       3  BEN3        0.0618
     71  H71       -7.2160    1.7420    1.6960 H       4  TET4        0.4932
     72  C72       -7.8980    4.0500   -2.7230 C.3     1  BEN1        0.0926
     73  H73       -3.8320    1.2830   -5.3510 H       1  BEN1        0.0376
     74  O74       -9.0350    3.2230   -2.4120 O.3     1  BEN1       -0.3859
     75  H75       -4.4400    2.9000   -4.9770 H       1  BEN1        0.0376
     76  H76       -6.6760   -0.7120   -3.9230 H       1  BEN1        0.0247
     77  H77       -5.3190   -0.1900   -2.8970 H       1  BEN1        0.0247
     78  H78       -5.0100   -0.8000   -4.5460 H       1  BEN1        0.0247
     79  H79       -7.5110    1.4580   -3.1800 H       1  BEN1        0.1226
     80  H80       -5.9770    0.4820   -6.5390 H       1  BEN1        0.0247
     81  H81       -6.4980    2.1730   -6.3720 H       1  BEN1        0.0247
     82  H82       -7.5530    0.8540   -5.7850 H       1  BEN1        0.0247
     83  H83       -7.8190    3.3490   -4.7500 H       1  BEN1        0.0453
     84  H84       -6.2870    4.0570   -4.1680 H       1  BEN1        0.0453
     85  H85       -7.2410    4.0980   -1.8380 H       1  BEN1        0.0656
     86  H86       -9.5580    3.5790   -1.7000 H       1  BEN1        0.2103
@<TRIPOS>BOND
     1     1     2   ar
     2     1     6   ar
     3     1    20    1
     4     2     3   ar
     5     2    21    1
     6     3     4   ar
     7     3    23    1
     8     4     5   ar
     9     4    30    1
    10     5     6   ar
    11     5    11    1
    12     6    12    1
    13     7     8   ar
    14     7    19   ar
    15     7    31    1
    16     8     9   ar
    17     8    32    1
    18     9    10   ar
    19     9    33    1
    20    10    18   ar
    21    10    34    1
    22    11    15   am
    23    11    17    1
    24    12    13    1
    25    12    35    1
    26    12    42    1
    27    13    14    1
    28    13    43    1
    29    13    44    1
    30    14    15    1
    31    14    22    1
    32    14    45    1
    33    15    16    2
    34    17    28    1
    35    17    51    1
    36    17    52    1
    37    18    19   ar
    38    18    57    1
    39    19    72    1
    40    22    53   am
    41    22    58    1
    42    24    25   ar
    43    24    29   ar
    44    24    62    1
    45    25    26   ar
    46    25    37    1
    47    26    27   ar
    48    26    64    1
    49    27    28   ar
    50    27    65    1
    51    28    29   ar
    52    29    66    1
    53    36    37   ar
    54    36    41   ar
    55    36    67    1
    56    37    38   ar
    57    38    39   ar
    58    38    50    1
    59    39    40   ar
    60    39    68    1
    61    40    41   ar
    62    40    69    1
    63    41    70    1
    64    46    47   ar
    65    46    50   ar
    66    46    71    1
    67    47    48   ar
    68    48    49   ar
    69    49    50   ar
    70    53    54    2
    71    53    55    1
    72    55    56    1
    73    55    73    1
    74    55    75    1
    75    56    59    1
    76    56    60    1
    77    56    61    1
    78    59    76    1
    79    59    77    1
    80    59    78    1
    81    60    63    1
    82    60    79    1
    83    61    80    1
    84    61    81    1
    85    61    82    1
    86    63    72    1
    87    63    83    1
    88    63    84    1
    89    72    74    1
    90    72    85    1
    91    74    86    1
