@<TRIPOS>MOLECULE
CPD_05-b
 84 87 0 0 0
SMALL
GASTEIGER

@<TRIPOS>ATOM
      1 C1          3.9391   -6.4800   15.5598 C.3     4  UNK444     -0.1130
      2 C2          4.2271   -4.9900   15.8642 C.3     4  UNK444     -0.1819
      3 C3          5.6809   -4.7925   16.3708 C.3     4  UNK444      0.0851
      4 ****        6.7871   -9.3033   10.3901 H       2  APM222      0.1248
      5 ****        5.2581  -10.4845    8.6569 H       2  APM222      0.1165
      6 ****        6.1746   -9.1011    8.0469 H       2  APM222      0.1104
      7 ****        2.8404  -10.3777    8.5024 H       2  APM222      0.1347
      8 ****        5.1121   -6.8535    7.7493 H       2  APM222      0.1637
      9 ****        3.0698   -5.6670    7.0385 H       2  APM222      0.1661
     10 ****        0.9043   -6.7326    7.2192 H       2  APM222      0.1366
     11 ****        3.9760   -9.9147   10.9838 H       2  APM222      0.2287
     12 ****       -1.5771   -9.3652    7.0655 H       2  APM222      0.2695
     13 ****       -0.5578   -8.0821    6.4953 H       2  APM222      0.2921
     14 ****        0.8646  -10.8791    9.0919 H       2  APM222      0.2932
     15 ****       -0.7550  -10.9831    8.4687 H       2  APM222      0.2700
     16 ****        7.5899   -6.1940    8.4655 H       3  PIP333      0.0972
     17 ****        7.8640   -7.7900    9.1636 H       3  PIP333      0.1042
     18 ****        9.6873   -6.1956    9.7570 H       3  PIP333      0.1120
     19 ****        8.8342   -6.7569   11.2176 H       3  PIP333      0.0892
     20 S1          9.3806   -3.5112   10.2361 S.3     5  SULFONYL555    2.5967
     21 O           8.7991   -2.2598   10.6657 O.3     5  SULFONYL555   -0.8792
     22 ****        6.8605   -3.4737   11.4699 H       3  PIP333      0.1335
     23 ****        7.0626   -5.0338   12.2960 H       3  PIP333      0.1023
     24 ****        4.9872   -5.0389   10.9262 H       3  PIP333      0.1325
     25 ****        5.9089   -4.5846    9.4814 H       3  PIP333      0.0818
     26 S           5.6892  -10.4715   12.5935 S.3     1  TOS111      2.6301
     27 O1          6.9619  -11.0812   12.2574 O.3     1  TOS111     -0.8697
     28 O2          4.6929  -11.2411   13.3132 O.3     1  TOS111     -0.8673
     29 O4          6.5862   -5.2569   15.3591 O.3     4  UNK444     -0.2200
     30 C5          7.4295   -7.1258   14.1038 C.ar    4  UNK444     -0.1742
     31 C6          7.2336   -8.3361   13.4410 C.ar    4  UNK444     -0.0198
     32 C7          5.9731   -8.9493   13.4622 C.ar    4  UNK444     -0.7581
     33 C8          4.9205   -8.3362   14.1404 C.ar    4  UNK444      0.0216
     34 C9          5.1134   -7.1196   14.8034 C.ar    4  UNK444     -0.1541
     35 C10         6.3659   -6.5027   14.7672 C.ar    4  UNK444      0.1564
     36 C           5.5172   -7.5557   10.4985 C.2     2  APM222      0.2718
     37 CA          5.7427   -9.0205   10.1967 C.3     2  APM222      0.0477
     38 CB          5.3644   -9.3906    8.7326 C.3     2  APM222     -0.1223
     39 CG          4.0830   -8.6859    8.2471 C.ar    2  APM222     -0.0583
     40 CD1         2.8461   -9.3390    8.2222 C.ar    2  APM222     -0.0743
     41 CD2         4.1569   -7.3652    7.7949 C.ar    2  APM222     -0.0556
     42 CE1         1.6728   -8.6774    7.8292 C.ar    2  APM222     -0.1431
     43 CE2         3.0042   -6.6903    7.3943 C.ar    2  APM222     -0.1087
     44 CZ          1.7677   -7.3306    7.4562 C.ar    2  APM222     -0.0850
     45 CF          0.3290   -9.3870    7.8006 C.1     2  APM222      0.3438
     46 O           4.4950   -7.3287   11.1281 O.2     2  APM222     -0.3648
     47 N           4.9591   -9.8172   11.1319 N.3     2  APM222     -0.8287
     48 NG1        -0.6590   -8.9074    7.0815 N.2     2  APM222     -0.3263
     49 NG2         0.1428  -10.4859    8.4919 N.2     2  APM222     -0.3238
     50 N1          6.3427   -6.5314   10.1136 N.am    3  PIP333     -0.3394
     51 C2          7.6128   -6.7529    9.4167 C.3     3  PIP333     -0.0358
     52 C3          8.7328   -6.1574   10.3045 C.3     3  PIP333     -0.0190
     53 N4          8.3519   -4.7952   10.6634 N.3     3  PIP333     -0.8140
     54 C5          7.0723   -4.5423   11.3169 C.3     3  PIP333     -0.0266
     55 C6          5.9635   -5.1510   10.4274 C.3     3  PIP333     -0.0298
     56 O           9.7429   -3.6739    8.8477 O.3     5  SULFONYL555   -0.8868
     57 C57        10.8564   -3.7923   11.2366 C.3     5  SULFONYL555   -0.8107
     58 ****       10.6017   -3.7436   12.3071 H       5  SULFONYL555    0.1430
     59 C12         8.8015   -6.4615   14.1091 C.3     4  UNK444      0.1509
     60 C11         8.3906   -8.9884   12.6930 C.3     4  UNK444      0.1479
     61 C4          3.5513   -9.0062   14.1526 C.3     4  UNK444      0.1456
     62 ****        3.7887   -7.0453   16.4900 H       4  UNK444      0.0994
     63 ****        3.0202   -6.5598   14.9595 H       4  UNK444      0.0961
     64 ****        4.1077   -4.4144   14.9329 H       4  UNK444      0.0948
     65 ****        3.5030   -4.6167   16.6051 H       4  UNK444      0.1030
     66 C18         5.9806   -3.2793   16.5526 C.3     4  UNK444     -0.2029
     67 C19         5.9480   -5.5361   17.7084 C.3     4  UNK444     -0.2302
     68 ****        5.3164   -2.8342   17.3096 H       4  UNK444      0.0940
     69 ****        5.8347   -2.7510   15.5986 H       4  UNK444      0.0855
     70 ****        7.0250   -3.1368   16.8668 H       4  UNK444      0.0942
     71 ****        5.2451   -5.1916   18.4839 H       4  UNK444      0.0907
     72 ****        6.9741   -5.3332   18.0477 H       4  UNK444      0.0928
     73 ****        5.8461   -6.6223   17.5889 H       4  UNK444      0.0857
     74 ****       11.5810   -2.9984   11.0026 H       5  SULFONYL555    0.1534
     75 ****       11.3128   -4.7686   11.0101 H       5  SULFONYL555    0.1341
     76 H1          2.8524   -8.3952   14.7238 H       4  UNK444      0.0000
     77 H2          3.6330   -9.9908   14.6130 H       4  UNK444      0.0000
     78 H3          3.1895   -9.1121   13.1299 H       4  UNK444      0.0000
     79 H4          9.2820   -8.3685   12.7897 H       4  UNK444      0.0000
     80 H6          8.5863   -9.9740   13.1153 H       4  UNK444      0.0000
     81 H7          8.1310   -9.0896   11.6392 H       4  UNK444      0.0000
     82 H5          9.5061   -7.0774   13.5504 H       4  UNK444      0.0000
     83 H8          8.7306   -5.4782   13.6440 H       4  UNK444      0.0000
     84 H9          9.1488   -6.3532   15.1366 H       4  UNK444      0.0000
@<TRIPOS>BOND
     1    34     1    1
     2    34    33   ar
     3    33    32   ar
     4    32    31   ar
     5    30    31   ar
     6    30    35   ar
     7    35    29    1
     8     3    29    1
     9     3    67    1
    10    67    73    1
    11    67    72    1
    12    67    71    1
    13     3    66    1
    14    66    70    1
    15    66    69    1
    16    66    68    1
    17     2     3    1
    18     2    65    1
    19     1     2    1
    20     2    64    1
    21    35    34   ar
    22    30    59    1
    23    83    59    1
    24    82    59    1
    25    84    59    1
    26    31    60    1
    27    81    60    1
    28    80    60    1
    29    79    60    1
    30    26    32    1
    31    26    28    1
    32    26    27    1
    33    47    26    1
    34    47    11    1
    35    37    47    1
    36    37     4    1
    37    37    38    1
    38    38     5    1
    39    38     6    1
    40    38    39    1
    41    39    41   ar
    42    41     8    1
    43    43    41   ar
    44    43     9    1
    45    44    43   ar
    46    44    10    1
    47    42    44   ar
    48    42    45    1
    49    45    48    2
    50    48    12    1
    51    48    13    1
    52    45    49    2
    53    49    15    1
    54    49    14    1
    55    40    42   ar
    56    40     7    1
    57    39    40   ar
    58    36    37    1
    59    36    46    2
    60    36    50   am
    61    55    50    1
    62    55    24    1
    63    55    25    1
    64    54    55    1
    65    54    22    1
    66    54    23    1
    67    53    54    1
    68    53    20    1
    69    20    21    1
    70    20    57    1
    71    57    75    1
    72    57    74    1
    73    57    58    1
    74    20    56    1
    75    52    53    1
    76    52    18    1
    77    52    19    1
    78    51    52    1
    79    51    16    1
    80    51    17    1
    81    50    51    1
    82    33    61    1
    83    76    61    1
    84    77    61    1
    85    78    61    1
    86     1    63    1
    87     1    62    1
