@<TRIPOS>MOLECULE
CPD_20-b
 61 64 0 0 0
SMALL
GASTEIGER

@<TRIPOS>ATOM
      1 C1          3.8980   -6.3621   15.2928 C.ar    4  NAPHTHALENE44   -0.1040
      2 C2          4.0694   -5.1465   15.9628 C.ar    4  NAPHTHALENE44   -0.1286
      3 C3          5.3389   -4.5699   16.0427 C.ar    4  NAPHTHALENE44   -0.1004
      4 C4          6.4339   -5.2076   15.4543 C.ar    4  NAPHTHALENE44   -0.1322
      5 ****        6.7814   -9.2897   10.3883 H       2  APM222      0.1469
      6 ****        5.2578  -10.4950    8.6501 H       2  APM222      0.1190
      7 ****        6.1792   -9.1071    8.0457 H       2  APM222      0.1214
      8 ****        2.8048  -10.3941    8.5086 H       2  APM222      0.1338
      9 ****        5.1163   -6.8600    7.7458 H       2  APM222      0.1665
     10 ****        3.0653   -5.6584    7.0766 H       2  APM222      0.1664
     11 ****        0.8699   -6.7622    7.2333 H       2  APM222      0.1354
     12 ****        3.9538   -9.9196   10.9741 H       2  APM222      0.2299
     13 ****       -1.5688   -9.3628    7.0725 H       2  APM222      0.2731
     14 ****       -0.5153   -8.0497    6.5302 H       2  APM222      0.2964
     15 ****        0.9191  -10.8738    9.0817 H       2  APM222      0.2970
     16 ****       -0.7395  -10.9929    8.4777 H       2  APM222      0.2735
     17 ****        6.3756   -6.6500   10.2665 O.3     2  APM222     -0.2253
     18 C1          5.8741   -5.3439   10.6253 C.3     3  BENZYL33    0.0151
     19 C2          6.9194   -4.2635   10.3675 C.ar    3  BENZYL33   -0.1012
     20 C3          6.9473   -3.1121   11.1612 C.ar    3  BENZYL33   -0.1163
     21 C4          7.9086   -2.1260   10.9256 C.ar    3  BENZYL33   -0.1222
     22 C5          8.8403   -2.2911    9.8969 C.ar    3  BENZYL33   -0.1152
     23 C6          8.8117   -3.4415    9.1036 C.ar    3  BENZYL33   -0.1254
     24 C7          7.8506   -4.4277    9.3381 C.ar    3  BENZYL33   -0.1139
     25 ****        4.9773   -5.1069   10.0255 H       3  BENZYL33    0.0921
     26 ****        5.6081   -5.3379   11.6973 H       3  BENZYL33    0.1134
     27 S           5.6619  -10.4223   12.6266 S.O2    1  TOS111      2.6219
     28 O1          6.9460  -11.0216   12.3178 O.2     1  TOS111     -0.8588
     29 O2          4.6680  -11.1908   13.3499 O.2     1  TOS111     -0.8624
     30 C5          7.3590   -7.0761   14.1994 C.ar    4  NAPHTHALENE44   -0.1228
     31 C6          7.1864   -8.2990   13.5423 C.ar    4  NAPHTHALENE44   -0.0612
     32 C7          5.9176   -8.8790   13.4682 C.ar    4  NAPHTHALENE44   -0.7353
     33 C8          4.8237   -8.2235   14.0364 C.ar    4  NAPHTHALENE44    0.0170
     34 C9          4.9919   -7.0045   14.7051 C.ar    4  NAPHTHALENE44   -0.0576
     35 C10         6.2676   -6.4277   14.7856 C.ar    4  NAPHTHALENE44    0.0063
     36 H1          2.9055   -6.7989   15.2369 H       4  NAPHTHALENE44    0.1367
     37 C           5.4455   -7.5903   10.4945 C.2     2  APM222      0.2654
     38 CA          5.7289   -9.0368   10.1911 C.3     2  APM222      0.0622
     39 CB          5.3639   -9.4014    8.7243 C.3     2  APM222     -0.1218
     40 CG          4.0844   -8.6932    8.2431 C.ar    2  APM222     -0.0587
     41 CD1         2.8461   -9.3484    8.2265 C.ar    2  APM222     -0.0744
     42 CD2         4.1590   -7.3688    7.7981 C.ar    2  APM222     -0.0608
     43 CE1         1.6771   -8.6792    7.8393 C.ar    2  APM222     -0.1466
     44 CE2         3.0015   -6.6879    7.4159 C.ar    2  APM222     -0.1040
     45 CZ          1.7626   -7.3302    7.4725 C.ar    2  APM222     -0.0848
     46 CF          0.3350   -9.3917    7.8098 C.3     2  APM222      0.3338
     47 O           4.3457   -7.3184   10.9481 O.2     2  APM222     -0.3594
     48 N           4.9369   -9.8153   11.1338 N.3     2  APM222     -0.8361
     49 NG1        -0.6471   -8.9006    7.0953 N.3     2  APM222     -0.3272
     50 NG2         0.1623  -10.4928    8.4970 N.3     2  APM222     -0.3248
     51 ****        6.2239   -2.9818   11.9605 H       3  BENZYL33    0.1345
     52 ****        7.9305   -1.2330   11.5417 H       3  BENZYL33    0.1406
     53 ****        9.5867   -1.5253    9.7137 H       3  BENZYL33    0.1405
     54 ****        9.5348   -3.5703    8.3049 H       3  BENZYL33    0.1384
     55 ****        7.8299   -5.3190    8.7192 H       3  BENZYL33    0.1324
     56 H2          3.2175   -4.6530   16.4198 H       4  NAPHTHALENE44    0.1417
     57 H3          5.4733   -3.6259   16.5627 H       4  NAPHTHALENE44    0.1428
     58 H4          7.4144   -4.7463   15.5225 H       4  NAPHTHALENE44    0.1437
     59 H5          8.3517   -6.6383   14.2490 H       4  NAPHTHALENE44    0.1476
     60 H6          8.0397   -8.7947   13.0928 H       4  NAPHTHALENE44    0.1541
     61 H8          3.8399   -8.6729   13.9531 H       4  NAPHTHALENE44    0.1418
@<TRIPOS>BOND
     1    27    32    1
     2    30    31   ar
     3    30    35   ar
     4    30    59    1
     5    35     4   ar
     6    35    34   ar
     7    34     1   ar
     8    38     5    1
     9    39     6    1
    10    39     7    1
    11    41     8    1
    12    42     9    1
    13    44    10    1
    14    45    11    1
    15    48    12    1
    16    49    13    1
    17    49    14    1
    18    50    15    1
    19    50    16    1
    20    37    17    1
    21    18    19    1
    22    19    20   ar
    23    19    24   ar
    24    24    23   ar
    25    23    22   ar
    26    22    21   ar
    27    21    20   ar
    28    17    18    1
    29    18    25    1
    30    34    33   ar
    31    27    29    2
    32    27    28    2
    33    33    32   ar
    34    33    61    1
    35    32    31   ar
    36    31    60    1
    37     1     2   ar
    38     1    36    1
    39    37    47    2
    40    37    38    1
    41    38    48    1
    42    38    39    1
    43    39    40    1
    44    40    42   ar
    45    40    41   ar
    46    41    43   ar
    47    43    46    1
    48    43    45   ar
    49    45    44   ar
    50    44    42   ar
    51    46    50    1
    52    46    49    1
    53    18    26    1
    54    20    51    1
    55    21    52    1
    56    22    53    1
    57    23    54    1
    58    24    55    1
    59    48    27    1
    60     2     3   ar
    61     2    56    1
    62     3     4   ar
    63     3    57    1
    64     4    58    1
