@<TRIPOS>MOLECULE
CPD_48-b
 62 65 0 0 0
SMALL
GASTEIGER

@<TRIPOS>ATOM
      1 C1          3.9001   -6.3645   15.2968 C.ar    4  NAPHTHALENE44   -0.0958
      2 C2          4.0679   -5.1488   15.9664 C.ar    4  NAPHTHALENE44   -0.1226
      3 C3          5.3365   -4.5696   16.0483 C.ar    4  NAPHTHALENE44   -0.0846
      4 C4          6.4334   -5.2045   15.4615 C.ar    4  NAPHTHALENE44   -0.1535
      5 ****        6.7192   -9.3800   10.4295 H       2  APM222      0.1248
      6 ****        5.2457  -10.5040    8.6437 H       2  APM222      0.1341
      7 ****        6.1694   -9.1125    8.0649 H       2  APM222      0.1033
      8 ****        2.7983  -10.3928    8.5095 H       2  APM222      0.1425
      9 ****        5.0989   -6.8607    7.7310 H       2  APM222      0.1357
     10 ****        3.0633   -5.6639    7.0538 H       2  APM222      0.1634
     11 ****        0.8664   -6.7607    7.2174 H       2  APM222      0.1457
     12 ****        3.9211   -9.9465   11.0056 H       2  APM222      0.2360
     13 ****       -1.5755   -9.3642    7.0657 H       2  APM222      0.2828
     14 ****       -0.5221   -8.0552    6.5155 H       2  APM222      0.2971
     15 ****        0.9058  -10.8686    9.0836 H       2  APM222      0.2953
     16 ****       -0.7502  -10.9875    8.4746 H       2  APM222      0.2831
     17 N1          8.3551   -4.7047    9.9783 N.4     3  PIPERAZINE33   -0.0463
     18 C1          7.1862   -4.4423   10.8440 C.3     3  PIPERAZINE33   -0.1535
     19 C2          5.9616   -5.2146   10.3002 C.3     3  PIPERAZINE33   -0.0234
     20 N2          6.3308   -6.6177   10.0758 N.am    3  PIPERAZINE33   -0.3690
     21 C3          7.5491   -6.9266    9.3141 C.3     3  PIPERAZINE33   -0.0260
     22 C4          8.7277   -6.1320    9.9135 C.3     3  PIPERAZINE33   -0.1561
     23 H1          9.2017   -4.1135   10.2961 H       3  PIPERAZINE33    0.2748
     24 H2          6.9707   -3.3586   10.8581 H       3  PIPERAZINE33    0.1575
     25 H3          7.4012   -4.7665   11.8761 H       3  PIPERAZINE33    0.1670
     26 S           5.6612  -10.4280   12.6403 S.O2    1  TOS111      2.6193
     27 O1          6.9473  -11.0194   12.3206 O.2     1  TOS111     -0.8547
     28 O2          4.6852  -11.2021   13.3803 O.2     1  TOS111     -0.8357
     29 C5          7.3627   -7.0687   14.2002 C.ar    4  NAPHTHALENE44   -0.1529
     30 C6          7.1915   -8.2894   13.5385 C.ar    4  NAPHTHALENE44   -0.0677
     31 C7          5.9247   -8.8776   13.4718 C.ar    4  NAPHTHALENE44   -0.7408
     32 C8          4.8313   -8.2248   14.0424 C.ar    4  NAPHTHALENE44    0.0377
     33 C9          4.9971   -7.0040   14.7099 C.ar    4  NAPHTHALENE44   -0.0598
     34 C10         6.2697   -6.4244   14.7897 C.ar    4  NAPHTHALENE44    0.0032
     35 H1          2.9090   -6.8043   15.2401 H       4  NAPHTHALENE44    0.1461
     36 C           5.4780   -7.5956   10.4944 C.2     2  APM222      0.2813
     37 CA          5.6904   -9.0663   10.2110 C.3     2  APM222      0.0429
     38 CB          5.3479   -9.4116    8.7336 C.3     2  APM222     -0.1242
     39 CG          4.0761   -8.6953    8.2434 C.ar    2  APM222     -0.0640
     40 CD1         2.8382   -9.3481    8.2249 C.ar    2  APM222     -0.0689
     41 CD2         4.1485   -7.3731    7.7900 C.ar    2  APM222     -0.0795
     42 CE1         1.6699   -8.6787    7.8323 C.ar    2  APM222     -0.1326
     43 CE2         2.9953   -6.6910    7.4007 C.ar    2  APM222     -0.1067
     44 CZ          1.7562   -7.3315    7.4598 C.ar    2  APM222     -0.0762
     45 CF          0.3280   -9.3903    7.8036 C.3     2  APM222      0.3303
     46 O           4.4622   -7.3327   11.1198 O.2     2  APM222     -0.3182
     47 N           4.9043   -9.8404   11.1582 N.3     2  APM222     -0.8268
     48 NG1        -0.6538   -8.9024    7.0858 N.3     2  APM222     -0.3196
     49 NG2         0.1519  -10.4885    8.4949 N.3     2  APM222     -0.3195
     50 H4          5.6634   -4.7794    9.3325 H       3  PIPERAZINE33    0.0898
     51 H5          5.1299   -5.0571   11.0056 H       3  PIPERAZINE33    0.1814
     52 H7          7.4060   -6.6188    8.2670 H       3  PIPERAZINE33    0.0956
     53 H8          7.8979   -7.9638    9.3045 H       3  PIPERAZINE33    0.1556
     54 H9          9.6197   -6.2658    9.2746 H       3  PIPERAZINE33    0.1594
     55 H10         8.9627   -6.5102   10.9230 H       3  PIPERAZINE33    0.1653
     56 H2          3.2143   -4.6567   16.4217 H       4  NAPHTHALENE44    0.1539
     57 H3          5.4678   -3.6254   16.5689 H       4  NAPHTHALENE44    0.1515
     58 H4          7.4131   -4.7423   15.5328 H       4  NAPHTHALENE44    0.1385
     59 H5          8.3544   -6.6285   14.2521 H       4  NAPHTHALENE44    0.1328
     60 H6          8.0456   -8.7761   13.0804 H       4  NAPHTHALENE44    0.1433
     61 H8          3.8493   -8.6778   13.9616 H       4  NAPHTHALENE44    0.1496
     62 ****        8.1230   -4.3704    8.9779 H       3  PIPERAZINE33    0.2576
@<TRIPOS>BOND
     1    26    31    1
     2    29    30   ar
     3    29    34   ar
     4    29    59    1
     5    34     4   ar
     6    34    33   ar
     7    33     1   ar
     8    37     5    1
     9    38     6    1
    10    38     7    1
    11    40     8    1
    12    41     9    1
    13    43    10    1
    14    44    11    1
    15    47    12    1
    16    48    13    1
    17    48    14    1
    18    49    15    1
    19    49    16    1
    20    36    20   am
    21    17    18    1
    22    17    22    1
    23    17    23    1
    24    22    21    1
    25    22    54    1
    26    22    55    1
    27    21    20    1
    28    21    52    1
    29    21    53    1
    30    33    32   ar
    31    26    28    2
    32    26    27    2
    33    32    31   ar
    34    32    61    1
    35    31    30   ar
    36    30    60    1
    37     1     2   ar
    38     1    35    1
    39    36    46    2
    40    36    37    1
    41    37    47    1
    42    37    38    1
    43    38    39    1
    44    39    41   ar
    45    39    40   ar
    46    40    42   ar
    47    42    45    1
    48    42    44   ar
    49    44    43   ar
    50    43    41   ar
    51    45    49    1
    52    45    48    1
    53    20    19    1
    54    19    18    1
    55    19    50    1
    56    19    51    1
    57    18    24    1
    58    18    25    1
    59    47    26    1
    60     2     3   ar
    61     2    56    1
    62     3     4   ar
    63     3    57    1
    64     4    58    1
    65    17    62    1
