@<TRIPOS>MOLECULE
CPD_65-b
 85 87 0 0 0
SMALL
GASTEIGER

@<TRIPOS>ATOM
      1 C1          3.8030   -8.0097   13.7414 C.3     1  TOS111     -0.0648
      2 ****        5.0744   -5.7876   14.5085 H       1  TOS111      0.1313
      3 C3          7.5614   -5.0308   15.2714 C.3     1  TOS111     -0.0709
      4 C4          8.7912   -9.5536   13.4852 C.3     1  TOS111     -0.0959
      5 ****        9.1016   -6.9645   14.0223 H       1  TOS111      0.1524
      6 ****        3.5300   -8.8550   13.0985 H       1  TOS111      0.0827
      7 C7          8.3987   -4.0297   14.4314 C.3     1  TOS111     -0.2069
      8 ****        6.7861   -9.3135   10.1873 H       2  APM222      0.1426
      9 ****        5.2654  -10.5854    8.5155 H       2  APM222      0.1089
     10 ****        6.1912   -9.2374    7.8213 H       2  APM222      0.1227
     11 ****        2.8023  -10.4645    8.3933 H       2  APM222      0.1291
     12 ****        5.1403   -7.0065    7.3976 H       2  APM222      0.1761
     13 ****        3.0747   -5.7267    6.9534 H       2  APM222      0.1616
     14 ****        0.8673   -6.7883    7.2603 H       2  APM222      0.1244
     15 ****        3.9391   -9.7118   10.8402 H       2  APM222      0.2220
     16 ****       -1.6022   -9.3335    7.1335 H       2  APM222      0.2631
     17 ****       -0.5394   -8.0321    6.5761 H       2  APM222      0.2951
     18 ****        0.9428  -10.9250    9.0186 H       2  APM222      0.3000
     19 ****       -0.7453  -11.0071    8.4902 H       2  APM222      0.2640
     20 ****        7.7119   -6.3410    8.1813 H       3  PIP333      0.0794
     21 ****        7.9739   -7.8677    9.0190 H       3  PIP333      0.1067
     22 C          10.1763   -6.2988    9.3477 C.2     4  CO244       0.3227
     23 ****        8.8702   -6.6705   11.0051 H       3  PIP333      0.0832
     24 ****        8.4969   -4.1146    9.3288 H       3  PIP333      0.0967
     25 ****        9.2876   -4.2196   10.9298 H       3  PIP333      0.0937
     26 ****        6.9004   -3.4817   11.1715 H       3  PIP333      0.0719
     27 ****        7.1314   -5.1017   11.9089 H       3  PIP333      0.0858
     28 ****        5.0724   -5.0370   10.5920 H       3  PIP333      0.0999
     29 ****        5.9604   -4.6094    9.1120 H       3  PIP333      0.0691
     30 S           5.7063  -10.2628   12.4773 S.O2    1  TOS111      2.5872
     31 O1          6.7862  -11.0839   11.9773 O.2     1  TOS111     -0.8673
     32 O2          4.7061  -10.9122   13.3032 O.2     1  TOS111     -0.8849
     33 C1          6.2862   -8.7503   13.3204 C.ar    1  TOS111     -0.6768
     34 C2          5.3413   -7.7867   13.7404 C.ar    1  TOS111      0.0361
     35 C3          5.7829   -6.5613   14.2559 C.ar    1  TOS111     -0.1575
     36 C4          7.1321   -6.2971   14.4917 C.ar    1  TOS111     -0.0085
     37 C5          8.0543   -7.2353   14.0283 C.ar    1  TOS111     -0.1395
     38 C6          7.6515   -8.5061   13.5937 C.ar    1  TOS111      0.0466
     39 C39         8.3228   -5.4343   16.5627 C.3     1  TOS111     -0.2059
     40 C           5.5323   -7.5339   10.0886 C.2     2  APM222      0.2646
     41 CA          5.7545   -9.0189    9.9552 C.3     2  APM222      0.0432
     42 CB          5.3804   -9.4901    8.5225 C.3     2  APM222     -0.1246
     43 CG          4.0974   -8.7869    8.0467 C.ar    2  APM222     -0.0387
     44 CD1         2.8520   -9.4217    8.1012 C.ar    2  APM222     -0.0786
     45 CD2         4.1759   -7.4777    7.5563 C.ar    2  APM222     -0.0365
     46 CE1         1.6781   -8.7273    7.7754 C.ar    2  APM222     -0.1601
     47 CE2         3.0110   -6.7610    7.2780 C.ar    2  APM222     -0.1049
     48 CZ          1.7654   -7.3753    7.4220 C.ar    2  APM222     -0.0931
     49 CF          0.3269   -9.4161    7.7962 C.3     2  APM222      0.3354
     50 O           4.4105   -7.2665   10.4802 O.2     2  APM222     -0.4261
     51 N           4.9284   -9.6489   10.9796 N.3     2  APM222     -0.8194
     52 NG1        -0.6710   -8.8912    7.1295 N.3     2  APM222     -0.3355
     53 NG2         0.1654  -10.5238    8.4752 N.3     2  APM222     -0.3285
     54 N1          6.4213   -6.5445    9.7976 N.am    3  PIP333     -0.3161
     55 C2          7.7210   -6.8124    9.1756 C.3     3  PIP333     -0.0158
     56 C3          8.8365   -6.1590   10.0299 C.3     3  PIP333     -0.1804
     57 C4          8.5114   -4.6646   10.2843 C.3     3  PIP333     -0.1366
     58 C5          7.1270   -4.5401   10.9623 C.3     3  PIP333     -0.1911
     59 C6          6.0330   -5.1568   10.0644 C.3     3  PIP333     -0.0116
     60 ****        6.6622   -4.4833   15.6045 H       1  TOS111      0.0842
     61 C64         2.8951   -6.8333   13.2559 C.3     1  TOS111     -0.2042
     62 C65         3.4081   -8.3525   15.2033 C.3     1  TOS111     -0.2057
     63 ****        8.3875  -10.5662   13.4100 H       1  TOS111      0.1026
     64 C67         9.6403   -9.6734   14.7852 C.3     1  TOS111     -0.2038
     65 C68         9.7041   -9.2746   12.2594 C.3     1  TOS111     -0.1917
     66 ****        9.3115   -4.5007   14.0388 H       1  TOS111      0.0917
     67 ****        8.6878   -3.1660   15.0510 H       1  TOS111      0.0725
     68 ****        7.8067   -3.6408   13.5936 H       1  TOS111      0.0813
     69 ****        7.6915   -6.0900   17.1825 H       1  TOS111      0.0737
     70 ****        8.5761   -4.5395   17.1535 H       1  TOS111      0.0745
     71 ****        9.2556   -5.9661   16.3239 H       1  TOS111      0.0814
     72 ****        2.9287   -5.9491   13.9054 H       1  TOS111      0.0687
     73 ****        1.8454   -7.1684   13.2416 H       1  TOS111      0.0559
     74 ****        3.1425   -6.5049   12.2429 H       1  TOS111      0.1043
     75 ****        3.9980   -9.2063   15.5704 H       1  TOS111      0.0911
     76 ****        2.3396   -8.6083   15.2743 H       1  TOS111      0.0690
     77 ****        3.6012   -7.4893   15.8600 H       1  TOS111      0.0730
     78 ****       10.1888   -8.7510   15.0163 H       1  TOS111      0.0742
     79 ****       10.3855  -10.4796   14.6785 H       1  TOS111      0.0811
     80 ****        8.9930   -9.9196   15.6423 H       1  TOS111      0.0658
     81 ****        9.0967   -9.2048   11.3453 H       1  TOS111      0.0896
     82 ****       10.4311  -10.0917   12.1323 H       1  TOS111      0.0839
     83 ****       10.2699   -8.3384   12.3797 H       1  TOS111      0.0980
     84 O          10.6443   -5.2997    8.7378 O.co2   4  CO244      -0.5615
     85 O          10.7830   -7.4011    9.4271 O.co2   4  CO244      -0.5716
@<TRIPOS>BOND
     1    34     1    1
     2    35     2    1
     3    36     3    1
     4    38     4    1
     5    37     5    1
     6     1     6    1
     7     3     7    1
     8    41     8    1
     9    42     9    1
    10    42    10    1
    11    44    11    1
    12    45    12    1
    13    47    13    1
    14    48    14    1
    15    51    15    1
    16    52    16    1
    17    52    17    1
    18    53    18    1
    19    53    19    1
    20    55    20    1
    21    55    21    1
    22    22    84   ar
    23    56    23    1
    24    57    24    1
    25    57    25    1
    26    58    26    1
    27    58    27    1
    28    59    28    1
    29    59    29    1
    30    30    33    1
    31    30    32    2
    32    30    31    2
    33    33    38   ar
    34    33    34   ar
    35    34    35   ar
    36    35    36   ar
    37     3    39    1
    38    36    37   ar
    39    37    38   ar
    40    40    50    2
    41    40    41    1
    42    41    51    1
    43    41    42    1
    44    42    43    1
    45    43    45   ar
    46    43    44   ar
    47    44    46   ar
    48    46    49    1
    49    46    48   ar
    50    48    47   ar
    51    47    45   ar
    52    49    53    1
    53    49    52    1
    54    59    54    1
    55    54    55    1
    56    55    56    1
    57    56    57    1
    58    57    58    1
    59    58    59    1
    60    40    54   am
    61    51    30    1
    62     3    60    1
    63     1    61    1
    64     1    62    1
    65     4    63    1
    66     4    64    1
    67     4    65    1
    68     7    66    1
    69     7    67    1
    70     7    68    1
    71    39    69    1
    72    39    70    1
    73    39    71    1
    74    61    72    1
    75    61    73    1
    76    61    74    1
    77    62    75    1
    78    62    76    1
    79    62    77    1
    80    64    78    1
    81    64    79    1
    82    64    80    1
    83    65    81    1
    84    65    82    1
    85    65    83    1
    86    22    85   ar
    87    56    22    1
