@<TRIPOS>MOLECULE
CPD_54-b
 99 102 0 0 0
SMALL
GASTEIGER

@<TRIPOS>ATOM
      1 C1          3.8040   -8.0084   13.7384 C.3     1  TOS111     -0.0697
      2 ****        5.0764   -5.7918   14.5114 H       1  TOS111      0.1390
      3 C3          7.5599   -5.0325   15.2702 C.3     1  TOS111     -0.0749
      4 C4          8.7906   -9.5636   13.4781 C.3     1  TOS111     -0.0929
      5 ****        9.0999   -6.9678   14.0201 H       1  TOS111      0.1420
      6 ****        3.5295   -8.8570   13.1003 H       1  TOS111      0.0821
      7 C7          8.3938   -4.0268   14.4326 C.3     1  TOS111     -0.2059
      8 ****        6.7892   -9.3169   10.1870 H       2  APM222      0.1293
      9 ****        5.2650  -10.5860    8.5161 H       2  APM222      0.1199
     10 ****        6.1911   -9.2384    7.8217 H       2  APM222      0.1097
     11 ****        2.8018  -10.4638    8.3951 H       2  APM222      0.1393
     12 ****        5.1408   -7.0060    7.4019 H       2  APM222      0.1595
     13 ****        3.0758   -5.7261    6.9566 H       2  APM222      0.1629
     14 ****        0.8682   -6.7869    7.2614 H       2  APM222      0.1390
     15 ****        3.9407   -9.7155   10.8394 H       2  APM222      0.2294
     16 ****       -1.4729   -9.5939    6.8477 H       2  APM222      0.2706
     17 ****       -0.3101   -8.4937    6.0922 H       2  APM222      0.2979
     18 ****        0.7115  -10.4626    9.4998 H       2  APM222      0.3006
     19 ****       -0.8736  -10.7500    8.7650 H       2  APM222      0.2708
     20 ****        7.7208   -6.3424    8.1889 H       3  PIP333      0.0837
     21 ****        7.9843   -7.8696    9.0235 H       3  PIP333      0.1095
     22 C          10.2122   -6.3063    9.3405 C.2     4  CO244       0.2958
     23 ****        8.9004   -6.6746   11.0015 H       3  PIP333      0.1274
     24 ****        8.5056   -4.1295    9.3209 H       3  PIP333      0.1024
     25 ****        9.3006   -4.2169   10.9208 H       3  PIP333      0.1040
     26 ****        6.9111   -3.4874   11.1699 H       3  PIP333      0.1016
     27 ****        7.1429   -5.1071   11.9077 H       3  PIP333      0.1006
     28 ****        5.0820   -5.0426   10.6026 H       3  PIP333      0.1255
     29 ****        5.9603   -4.6132    9.1190 H       3  PIP333      0.0780
     30 S           5.7047  -10.2653   12.4760 S.O2    1  TOS111      2.5868
     31 O1          6.7819  -11.0887   11.9741 O.2     1  TOS111     -0.8671
     32 O2          4.7054  -10.9117   13.3059 O.2     1  TOS111     -0.8621
     33 C1          6.2870   -8.7539   13.3193 C.ar    1  TOS111     -0.6842
     34 C2          5.3428   -7.7901   13.7383 C.ar    1  TOS111      0.0419
     35 C3          5.7835   -6.5643   14.2566 C.ar    1  TOS111     -0.1585
     36 C4          7.1338   -6.3018   14.4912 C.ar    1  TOS111     -0.0058
     37 C5          8.0534   -7.2416   14.0270 C.ar    1  TOS111     -0.1565
     38 C6          7.6525   -8.5138   13.5911 C.ar    1  TOS111      0.0368
     39 C39         8.3211   -5.4281   16.5640 C.3     1  TOS111     -0.2062
     40 C           5.5400   -7.5372   10.0890 C.2     2  APM222      0.2730
     41 CA          5.7575   -9.0213    9.9564 C.3     2  APM222      0.0442
     42 CB          5.3808   -9.4911    8.5235 C.3     2  APM222     -0.1227
     43 CG          4.0978   -8.7868    8.0490 C.ar    2  APM222     -0.0511
     44 CD1         2.8514   -9.4210    8.1027 C.ar    2  APM222     -0.0769
     45 CD2         4.1766   -7.4774    7.5594 C.ar    2  APM222     -0.0564
     46 CE1         1.6782   -8.7264    7.7762 C.ar    2  APM222     -0.1574
     47 CE2         3.0116   -6.7600    7.2805 C.ar    2  APM222     -0.1033
     48 CZ          1.7657   -7.3748    7.4236 C.ar    2  APM222     -0.0890
     49 CF          0.3264   -9.4150    7.7952 C.3     2  APM222      0.3335
     50 O           4.4168   -7.2679   10.4737 O.2     2  APM222     -0.3809
     51 N           4.9292   -9.6504   10.9812 N.3     2  APM222     -0.8201
     52 NG1        -0.5439   -9.1471    6.8539 N.3     2  APM222     -0.3252
     53 NG2         0.0376  -10.2684    8.7459 N.3     2  APM222     -0.3213
     54 N1          6.4327   -6.5452    9.8039 N.am    3  PIP333     -0.3333
     55 C2          7.7315   -6.8153    9.1818 C.3     3  PIP333     -0.0024
     56 C3          8.8649   -6.1620   10.0225 C.3     3  PIP333     -0.1356
     57 C4          8.5254   -4.6687   10.2804 C.3     3  PIP333     -0.1458
     58 C5          7.1399   -4.5450   10.9609 C.3     3  PIP333     -0.1850
     59 C6          6.0406   -5.1609   10.0699 C.3     3  PIP333     -0.0157
     60 ****        6.6606   -4.4852   15.6014 H       1  TOS111      0.0939
     61 C64         2.8967   -6.8335   13.2471 C.3     1  TOS111     -0.2058
     62 C65         3.4098   -8.3417   15.2028 C.3     1  TOS111     -0.2063
     63 ****        8.3877  -10.5786   13.4081 H       1  TOS111      0.1162
     64 C67         9.6404   -9.6832   14.7760 C.3     1  TOS111     -0.2064
     65 C68         9.7150   -9.2677   12.2625 C.3     1  TOS111     -0.1913
     66 ****        9.3120   -4.4954   14.0508 H       1  TOS111      0.0767
     67 ****        8.6761   -3.1600   15.0506 H       1  TOS111      0.0855
     68 ****        7.8042   -3.6432   13.5902 H       1  TOS111      0.0718
     69 ****        7.6897   -6.0782   17.1897 H       1  TOS111      0.0823
     70 ****        8.5767   -4.5298   17.1486 H       1  TOS111      0.0837
     71 ****        9.2524   -5.9628   16.3260 H       1  TOS111      0.0784
     72 ****        2.9415   -5.9396   13.8824 H       1  TOS111      0.0748
     73 ****        1.8456   -7.1640   13.2504 H       1  TOS111      0.0663
     74 ****        3.1316   -6.5211   12.2262 H       1  TOS111      0.0941
     75 ****        3.9995   -9.1934   15.5750 H       1  TOS111      0.0940
     76 ****        2.3413   -8.5963   15.2754 H       1  TOS111      0.0787
     77 ****        3.6034   -7.4743   15.8540 H       1  TOS111      0.0774
     78 ****       10.1793   -8.7551   15.0020 H       1  TOS111      0.0727
     79 ****       10.3940  -10.4813   14.6641 H       1  TOS111      0.0859
     80 ****        9.0013   -9.9364   15.6375 H       1  TOS111      0.0812
     81 ****        9.1176   -9.1924   11.3443 H       1  TOS111      0.0682
     82 ****       10.4414  -10.0835   12.1339 H       1  TOS111      0.0916
     83 ****       10.2837   -8.3337   12.3881 H       1  TOS111      0.0736
     84 O          10.7145   -5.3797    8.7186 O.2     4  CO244      -0.3410
     85 O          10.7979   -7.5094    9.4672 O.3     4  CO244      -0.2458
     86 C          12.5091   -9.0839    9.0320 C.ar    5  PHENYL55   -0.0968
     87 C93        12.0372   -7.6506    8.7404 C.3     4  CO244       0.0237
     88 ****       13.6348   -8.5503   10.7961 H       5  PHENYL55    0.1344
     89 ****       12.7864   -6.9137    9.0789 H       4  CO244       0.1078
     90 ****       11.8804   -7.5004    7.6556 H       4  CO244       0.0995
     91 C          13.3202   -9.3530   10.1389 C.ar    5  PHENYL55   -0.1045
     92 C          13.7276  -10.6604   10.4120 C.ar    5  PHENYL55   -0.1298
     93 C          13.3353  -11.7088    9.5782 C.ar    5  PHENYL55   -0.1124
     94 C          12.5354  -11.4404    8.4665 C.ar    5  PHENYL55   -0.1310
     95 C          12.1263  -10.1341    8.1925 C.ar    5  PHENYL55   -0.1099
     96 ****       14.3510  -10.8644   11.2754 H       5  PHENYL55    0.1375
     97 ****       13.6510  -12.7243    9.7910 H       5  PHENYL55    0.1384
     98 ****       12.2301  -12.2497    7.8132 H       5  PHENYL55    0.1344
     99 ****       11.5051   -9.9432    7.3254 H       5  PHENYL55    0.1274
@<TRIPOS>BOND
     1    34     1    1
     2    35     2    1
     3    36     3    1
     4    38     4    1
     5    37     5    1
     6     1     6    1
     7     3     7    1
     8    41     8    1
     9    42     9    1
    10    42    10    1
    11    44    11    1
    12    45    12    1
    13    47    13    1
    14    48    14    1
    15    51    15    1
    16    52    16    1
    17    52    17    1
    18    53    18    1
    19    53    19    1
    20    55    20    1
    21    55    21    1
    22    22    84    2
    23    56    23    1
    24    57    24    1
    25    57    25    1
    26    58    26    1
    27    58    27    1
    28    59    28    1
    29    59    29    1
    30    30    33    1
    31    30    32    2
    32    30    31    2
    33    33    38   ar
    34    33    34   ar
    35    34    35   ar
    36    35    36   ar
    37     3    39    1
    38    36    37   ar
    39    37    38   ar
    40    40    50    2
    41    40    41    1
    42    41    51    1
    43    41    42    1
    44    42    43    1
    45    43    45   ar
    46    43    44   ar
    47    44    46   ar
    48    46    49    1
    49    46    48   ar
    50    48    47   ar
    51    47    45   ar
    52    49    53    1
    53    49    52    1
    54    59    54    1
    55    54    55    1
    56    55    56    1
    57    56    57    1
    58    57    58    1
    59    58    59    1
    60    40    54   am
    61    51    30    1
    62     3    60    1
    63     1    61    1
    64     1    62    1
    65     4    63    1
    66     4    64    1
    67     4    65    1
    68     7    66    1
    69     7    67    1
    70     7    68    1
    71    39    69    1
    72    39    70    1
    73    39    71    1
    74    61    72    1
    75    61    73    1
    76    61    74    1
    77    62    75    1
    78    62    76    1
    79    62    77    1
    80    64    78    1
    81    64    79    1
    82    64    80    1
    83    65    81    1
    84    65    82    1
    85    65    83    1
    86    22    85    1
    87    56    22    1
    88    86    91   ar
    89    85    87    1
    90    87    86    1
    91    87    89    1
    92    87    90    1
    93    86    95   ar
    94    95    94   ar
    95    94    93   ar
    96    93    92   ar
    97    92    91   ar
    98    91    88    1
    99    92    96    1
   100    93    97    1
   101    94    98    1
   102    95    99    1
