@<TRIPOS>MOLECULE
CPD_71-b
 66 70 0 0 0
SMALL
GASTEIGER

@<TRIPOS>ATOM
      1 C1          3.8332   -6.3487   15.1613 C.ar    5  NAPHTHALENE55   -0.1066
      2 C2          4.0116   -5.1397   15.8403 C.ar    5  NAPHTHALENE55   -0.1358
      3 C3          5.2906   -4.5925   15.9670 C.ar    5  NAPHTHALENE55   -0.1092
      4 C4          6.3921   -5.2759   15.4458 C.ar    5  NAPHTHALENE55   -0.1201
      5 ****        6.8026   -9.6448   10.1651 H       2  APM222      0.1434
      6 ****        5.1564  -10.6731    8.4591 H       2  APM222      0.1067
      7 ****        6.0823   -9.2975    7.8584 H       2  APM222      0.1298
      8 ****        2.7064  -10.4823    8.5277 H       2  APM222      0.1271
      9 ****        5.0747   -6.9774    7.7658 H       2  APM222      0.1823
     10 ****        3.0253   -5.7091    7.2253 H       2  APM222      0.1660
     11 ****        0.8147   -6.8065    7.3346 H       2  APM222      0.1250
     12 ****        4.0037  -10.2000   10.8211 H       2  APM222      0.2108
     13 ****       -1.6400   -9.3576    7.1395 H       2  APM222      0.2636
     14 ****       -0.5691   -8.0381    6.6380 H       2  APM222      0.2962
     15 ****        0.8682  -10.9518    9.0802 H       2  APM222      0.3001
     16 ****       -0.8060  -11.0454    8.5074 H       2  APM222      0.2643
     17 C          10.0435   -6.4716    8.7050 C.2     4  CO244       0.3458
     18 O          10.2704   -7.6763    8.4157 O.co2   4  CO244      -0.5670
     19 ****        9.2439   -4.0849    9.4368 H       3  TETRAHYDROQUINOLINE33    0.1734
     20 N1          6.4548   -6.8356   10.1986 N.am    3  TETRAHYDROQUINOLINE33   -0.2588
     21 C1          7.7505   -7.2060    9.6047 C.3     3  TETRAHYDROQUINOLINE33   -0.0053
     22 S           5.6537  -10.5341   12.6558 S.O2    1  TOS111      2.5841
     23 O1          6.9534  -11.1419   12.4478 O.2     1  TOS111     -0.8491
     24 O2          4.6314  -11.2840   13.3588 O.2     1  TOS111     -0.8746
     25 C5          7.3280   -7.2345   14.3520 C.ar    5  NAPHTHALENE55   -0.1184
     26 C6          7.1543   -8.4673   13.7175 C.ar    5  NAPHTHALENE55   -0.0562
     27 C7          5.8704   -8.9721   13.4938 C.ar    5  NAPHTHALENE55   -0.7107
     28 C8          4.7629   -8.2366   13.9287 C.ar    5  NAPHTHALENE55    0.0220
     29 C9          4.9328   -7.0347   14.6294 C.ar    5  NAPHTHALENE55   -0.0532
     30 C10         6.2205   -6.5113   14.8087 C.ar    5  NAPHTHALENE55    0.0133
     31 H1          2.8303   -6.7507   15.0561 H       5  NAPHTHALENE55    0.1280
     32 C           5.5481   -7.8441   10.4039 C.2     2  APM222      0.2729
     33 CA          5.7663   -9.2991   10.0410 C.3     2  APM222      0.0418
     34 CB          5.3061   -9.5887    8.5809 C.3     2  APM222     -0.1228
     35 CG          4.0275   -8.8161    8.2100 C.ar    2  APM222     -0.0434
     36 CD1         2.7735   -9.4393    8.2401 C.ar    2  APM222     -0.0792
     37 CD2         4.1109   -7.4734    7.8238 C.ar    2  APM222     -0.0377
     38 CE1         1.6140   -8.7379    7.8895 C.ar    2  APM222     -0.1602
     39 CE2         2.9550   -6.7550    7.5079 C.ar    2  APM222     -0.1029
     40 CZ          1.7076   -7.3828    7.5552 C.ar    2  APM222     -0.0948
     41 CF          0.2661   -9.4356    7.8619 C.3     2  APM222      0.3333
     42 O           4.4436   -7.6975   10.8939 O.2     2  APM222     -0.3990
     43 N           4.9762  -10.0567   11.0070 N.3     2  APM222     -0.8069
     44 NG1        -0.7128   -8.9074    7.1728 N.3     2  APM222     -0.3336
     45 NG2         0.0997  -10.5525    8.5222 N.3     2  APM222     -0.3283
     46 C2          8.7524   -6.1203    9.3295 C.2     3  TETRAHYDROQUINOLINE33   -0.1299
     47 C3          8.4952   -4.8514    9.6401 C.2     3  TETRAHYDROQUINOLINE33   -0.1518
     48 C4          6.9750   -3.1268   10.5705 C.ar    3  TETRAHYDROQUINOLINE33   -0.1097
     49 C5          5.7785   -2.7020   11.1452 C.ar    3  TETRAHYDROQUINOLINE33   -0.1515
     50 C6          4.7914   -3.6468   11.4121 C.ar    3  TETRAHYDROQUINOLINE33   -0.1435
     51 C7          5.0033   -4.9942   11.1090 C.ar    3  TETRAHYDROQUINOLINE33   -0.1553
     52 H2          3.1581   -4.6240   16.2702 H       5  NAPHTHALENE55    0.1307
     53 H3          5.4283   -3.6400   16.4705 H       5  NAPHTHALENE55    0.1352
     54 H4          7.3806   -4.8373   15.5438 H       5  NAPHTHALENE55    0.1432
     55 H5          8.3328   -6.8473   14.4913 H       5  NAPHTHALENE55    0.1498
     56 H6          8.0245   -9.0334   13.4044 H       5  NAPHTHALENE55    0.1602
     57 H8          3.7672   -8.6140   13.7212 H       5  NAPHTHALENE55    0.1354
     58 C8          6.2013   -5.4542   10.5277 C.ar    3  TETRAHYDROQUINOLINE33    0.0704
     59 C9          7.1761   -4.4784   10.2677 C.ar    3  TETRAHYDROQUINOLINE33   -0.0453
     60 H2          7.5934   -7.6861    8.6286 H       3  TETRAHYDROQUINOLINE33    0.0971
     61 H3          8.2832   -7.8995   10.2731 H       3  TETRAHYDROQUINOLINE33    0.1143
     62 ****        7.7468   -2.3932   10.3610 H       3  TETRAHYDROQUINOLINE33    0.1418
     63 ****        5.6149   -1.6556   11.3813 H       3  TETRAHYDROQUINOLINE33    0.1248
     64 ****        3.8524   -3.3306   11.8582 H       3  TETRAHYDROQUINOLINE33    0.1207
     65 ****        4.1655   -5.6155   11.3655 H       3  TETRAHYDROQUINOLINE33    0.1461
     66 O          10.8861   -5.5622    8.4758 O.co2   4  CO244      -0.5391
@<TRIPOS>BOND
     1    22    27    1
     2    25    26   ar
     3    25    30   ar
     4    25    55    1
     5    30     4   ar
     6    30    29   ar
     7    29     1   ar
     8    33     5    1
     9    34     6    1
    10    34     7    1
    11    36     8    1
    12    37     9    1
    13    39    10    1
    14    40    11    1
    15    43    12    1
    16    44    13    1
    17    44    14    1
    18    45    15    1
    19    45    16    1
    20    32    20   am
    21    48    49   ar
    22    48    59   ar
    23    48    62    1
    24    59    47    1
    25    59    58   ar
    26    58    20    1
    27    58    51   ar
    28    51    65    1
    29    51    50   ar
    30    29    28   ar
    31    22    24    2
    32    22    23    2
    33    28    27   ar
    34    28    57    1
    35    27    26   ar
    36    26    56    1
    37     1     2   ar
    38     1    31    1
    39    32    42    2
    40    32    33    1
    41    33    43    1
    42    33    34    1
    43    34    35    1
    44    35    37   ar
    45    35    36   ar
    46    36    38   ar
    47    38    41    1
    48    38    40   ar
    49    40    39   ar
    50    39    37   ar
    51    41    45    1
    52    41    44    1
    53    50    64    1
    54    50    49   ar
    55    49    63    1
    56    17    18   ar
    57    20    21    1
    58    21    60    1
    59    43    22    1
    60    21    61    1
    61    21    46    1
    62     2     3   ar
    63     2    52    1
    64     3     4   ar
    65     3    53    1
    66     4    54    1
    67    46    17    1
    68    46    47    2
    69    47    19    1
    70    17    66   ar
