@<TRIPOS>MOLECULE
CPD_82
 88 90 0 0 0
SMALL
GASTEIGER
Energy = 0

@<TRIPOS>ATOM
      1 C1          3.8821   -7.9585   13.7340 C.3     1  TOS11      -0.0670
      2 ****        5.2178   -5.7816   14.5298 H       1  TOS11       0.1395
      3 C3          7.7569   -4.9464   14.9981 C.3     1  TOS11      -0.0732
      4 C4          8.8740   -9.5746   13.3789 C.3     1  TOS11      -0.0901
      5 ****        9.2163   -6.9999   13.8658 H       1  TOS11       0.1395
      6 ****        3.5835   -8.8153   13.1250 H       1  TOS11       0.0856
      7 C7          8.7063   -4.0783   14.1386 C.3     1  TOS11      -0.2097
      8 ****        6.8155   -9.3005   10.1936 H       2  APM22       0.1239
      9 ****        5.2622  -10.5825    8.5361 H       2  APM22       0.1191
     10 ****        6.1901   -9.2331    7.8371 H       2  APM22       0.1097
     11 ****        2.7987  -10.4525    8.4150 H       2  APM22       0.1330
     12 ****        5.1411   -6.9947    7.4314 H       2  APM22       0.1613
     13 ****        3.0776   -5.7183    6.9725 H       2  APM22       0.1640
     14 ****        0.8709   -6.7795    7.2563 H       2  APM22       0.1339
     15 ****        3.9751   -9.7443   10.8636 H       2  APM22       0.2330
     16 ****       -1.6016   -9.3315    7.1123 H       2  APM22       0.2714
     17 ****       -0.5388   -8.0302    6.5586 H       2  APM22       0.2963
     18 ****        0.9214  -10.9166    9.0233 H       2  APM22       0.2974
     19 ****       -0.7585  -10.9987    8.4731 H       2  APM22       0.2723
     20 ****        7.7691   -6.2514    8.2754 H       3  PIP33       0.0967
     21 ****        7.9979   -7.8171    9.0379 H       3  PIP33       0.1066
     22 ****        9.7723   -6.1777    9.6307 H       3  PIP33       0.1080
     23 ****        8.8806   -6.6907   11.0902 H       3  PIP33       0.0983
     24 ****       10.9039   -3.6977   10.8659 C.3     4  SULFONYL4   -0.8121
     25 S1          9.3487   -3.4631    9.9823 S.O2    4  SULFONYL4    2.5935
     26 ****        6.7945   -3.4956   11.2061 H       3  PIP33       0.1337
     27 ****        6.9580   -5.1025   11.9696 H       3  PIP33       0.1035
     28 ****        5.0025   -5.0575   10.5642 H       3  PIP33       0.1318
     29 ****        5.9547   -4.6084    9.1342 H       3  PIP33       0.0867
     30 S           5.7342  -10.2662   12.4911 S.O2    1  TOS11       2.5871
     31 O1          6.7781  -11.1331   11.9931 O.2     1  TOS11      -0.8701
     32 O2          4.7273  -10.8692   13.3499 O.2     1  TOS11      -0.8585
     33 C1          6.3585   -8.7463   13.2807 C.ar    1  TOS11      -0.6838
     34 C2          5.4328   -7.7634   13.7079 C.ar    1  TOS11       0.0459
     35 C3          5.9169   -6.5490   14.2081 C.ar    1  TOS11      -0.1586
     36 C4          7.2708   -6.2687   14.3344 C.ar    1  TOS11      -0.0072
     37 C5          8.1619   -7.2461   13.8908 C.ar    1  TOS11      -0.1583
     38 C6          7.7325   -8.5169   13.4971 C.ar    1  TOS11       0.0308
     39 C39         8.4672   -5.2961   16.3263 C.3     1  TOS11      -0.2081
     40 C           5.5378   -7.5391   10.0944 C.2     2  APM22       0.2707
     41 CA          5.7813   -9.0270    9.9740 C.3     2  APM22       0.0505
     42 CB          5.3833   -9.4847    8.5485 C.3     2  APM22      -0.1241
     43 CG          4.0950   -8.7763    8.0680 C.ar    2  APM22      -0.0508
     44 CD1         2.8457   -9.4101    8.1169 C.ar    2  APM22      -0.0724
     45 CD2         4.1729   -7.4684    7.5809 C.ar    2  APM22      -0.0528
     46 CE1         1.6764   -8.7214    7.7821 C.ar    2  APM22      -0.1499
     47 CE2         3.0125   -6.7535    7.2947 C.ar    2  APM22      -0.1017
     48 CZ          1.7662   -7.3641    7.4280 C.ar    2  APM22      -0.0862
     49 CF          0.3223   -9.4089    7.7915 C.3     2  APM22       0.3338
     50 O           4.4046   -7.2986   10.4464 O.2     2  APM22      -0.3804
     51 N           4.9627   -9.6607   11.0009 N.3     2  APM22      -0.8216
     52 NG1        -0.6715   -8.8871    7.1138 N.3     2  APM22      -0.3290
     53 NG2         0.1526  -10.5146    8.4688 N.3     2  APM22      -0.3245
     54 N1          6.4103   -6.5319    9.8204 N.am    3  PIP33      -0.3364
     55 C2          7.7372   -6.7734    9.2339 C.3     3  PIP33      -0.0311
     56 C3          8.7992   -6.1253   10.1476 C.3     3  PIP33      -0.0230
     57 N4          8.3780   -4.7525   10.4326 N.3     3  PIP33      -0.8177
     58 C5          7.0444   -4.5488   11.0204 C.3     3  PIP33      -0.0294
     59 C6          5.9883   -5.1564   10.0785 C.3     3  PIP33      -0.0332
     60 O           8.7649   -2.2241   10.4632 O.2     4  SULFONYL4   -0.8789
     61 O           9.6274   -3.5879    8.5626 O.2     4  SULFONYL4   -0.8839
     62 ****       10.7263   -3.6333   11.9524 H       4  SULFONYL4    0.1396
     63 ****        6.8906   -4.3074   15.2250 H       1  TOS11       0.0983
     64 C64         2.9845   -6.7878   13.2173 C.3     1  TOS11      -0.2081
     65 C65         3.4694   -8.2444   15.2016 C.3     1  TOS11      -0.2069
     66 ****        8.4920  -10.5882   13.2716 H       1  TOS11       0.1208
     67 C67         9.6906   -9.7009   14.6953 C.3     1  TOS11      -0.2077
     68 C68         9.8110   -9.2843   12.1723 C.3     1  TOS11      -0.1950
     69 ****        9.5378   -4.6897   13.7702 H       1  TOS11       0.0675
     70 ****        9.1248   -3.2271   14.7034 H       1  TOS11       0.0937
     71 ****        8.1616   -3.6538   13.2903 H       1  TOS11       0.0718
     72 ****        7.7782   -5.8721   16.9626 H       1  TOS11       0.0827
     73 ****        8.7510   -4.3712   16.8545 H       1  TOS11       0.0851
     74 ****        9.3802   -5.8916   16.1581 H       1  TOS11       0.0800
     75 ****        3.1157   -5.8462   13.7642 H       1  TOS11       0.0739
     76 ****        1.9230   -7.0659   13.3226 H       1  TOS11       0.0700
     77 ****        3.1306   -6.5625   12.1613 H       1  TOS11       0.0921
     78 ****        4.0402   -9.0936   15.6095 H       1  TOS11       0.0938
     79 ****        2.3950   -8.4862   15.2743 H       1  TOS11       0.0807
     80 ****        3.6611   -7.3602   15.8330 H       1  TOS11       0.0767
     81 ****       10.1938   -8.7685   14.9888 H       1  TOS11       0.0748
     82 ****       10.4732  -10.4719   14.5879 H       1  TOS11       0.0868
     83 ****        9.0263  -10.0058   15.5213 H       1  TOS11       0.0834
     84 ****        9.2319   -9.2683   11.2385 H       1  TOS11       0.0631
     85 ****       10.5817  -10.0658   12.0840 H       1  TOS11       0.0913
     86 ****       10.3331   -8.3237   12.2794 H       1  TOS11       0.0670
     87 ****       11.5983   -2.8899   10.5718 H       4  SULFONYL4    0.1574
     88 ****       11.3684   -4.6693   10.6191 H       4  SULFONYL4    0.1335
@<TRIPOS>BOND
     1    34     1    1
     2    35     2    1
     3    36     3    1
     4    38     4    1
     5    37     5    1
     6     1     6    1
     7     3     7    1
     8    41     8    1
     9    42     9    1
    10    42    10    1
    11    44    11    1
    12    45    12    1
    13    47    13    1
    14    48    14    1
    15    51    15    1
    16    52    16    1
    17    52    17    1
    18    53    18    1
    19    53    19    1
    20    55    20    1
    21    55    21    1
    22    56    22    1
    23    56    23    1
    24    57    25    1
    25    25    60    2
    26    58    26    1
    27    58    27    1
    28    59    28    1
    29    59    29    1
    30    30    33    1
    31    30    32    2
    32    30    31    2
    33    33    38   ar
    34    33    34   ar
    35    34    35   ar
    36    35    36   ar
    37     3    39    1
    38    36    37   ar
    39    37    38   ar
    40    40    50    2
    41    40    41    1
    42    41    51    1
    43    41    42    1
    44    42    43    1
    45    43    45   ar
    46    43    44   ar
    47    44    46   ar
    48    46    49    1
    49    46    48   ar
    50    48    47   ar
    51    47    45   ar
    52    49    53    1
    53    49    52    1
    54    59    54    1
    55    54    55    1
    56    55    56    1
    57    56    57    1
    58    57    58    1
    59    58    59    1
    60    40    54   am
    61    51    30    1
    62    25    61    2
    63    25    24    1
    64    24    62    1
    65     3    63    1
    66     1    64    1
    67     1    65    1
    68     4    66    1
    69     4    67    1
    70     4    68    1
    71     7    69    1
    72     7    70    1
    73     7    71    1
    74    39    72    1
    75    39    73    1
    76    39    74    1
    77    64    75    1
    78    64    76    1
    79    64    77    1
    80    65    78    1
    81    65    79    1
    82    65    80    1
    83    67    81    1
    84    67    82    1
    85    67    83    1
    86    68    84    1
    87    68    85    1
    88    68    86    1
    89    24    87    1
    90    24    88    1
