@<TRIPOS>MOLECULE
CPD_75
 67 70 0 0 0
SMALL
GASTEIGER
Energy = 0

@<TRIPOS>ATOM
      1 C1          4.5807   -7.9053   13.8326 C.ar    1  TOS11      -0.1207
      2 C2          6.0813   -5.8375   14.9373 C.ar    1  TOS11      -0.1141
      3 ****        9.8525   -7.9129   13.3840 H       1  TOS11       0.1445
      4 ****        8.5537   -9.8118   12.4926 H       1  TOS11       0.1551
      5 ****        3.9387   -6.8632   14.5043 C.ar    1  TOS11      -0.0909
      6 ****        4.6907   -5.8280   15.0656 C.ar    1  TOS11      -0.1254
      7 ****        3.9554   -8.6617   13.3801 H       1  TOS11       0.1384
      8 ****        6.8107   -9.2248   10.3468 H       2  APM22       0.1187
      9 ****        5.2919  -10.4102    8.6303 H       2  APM22       0.1186
     10 ****        6.1445   -8.9953    8.0003 H       2  APM22       0.1113
     11 ****        2.8220  -10.3646    8.6667 H       2  APM22       0.1336
     12 ****        5.0045   -6.7709    7.7682 H       2  APM22       0.1633
     13 ****        2.8966   -5.6320    7.1782 H       2  APM22       0.1661
     14 ****        0.7478   -6.8482    7.3054 H       2  APM22       0.1349
     15 ****        3.9960   -9.7988   11.0050 H       2  APM22       0.2312
     16 ****       -1.5733   -9.5059    7.2342 H       2  APM22       0.2729
     17 ****       -0.5604   -8.1640    6.6737 H       2  APM22       0.2974
     18 ****        1.0082  -10.8921    9.2447 H       2  APM22       0.2978
     19 ****       -0.6618  -11.0912    8.6844 H       2  APM22       0.2735
     20 ****        7.4775   -6.1407    8.3428 H       3  PIP33       0.0935
     21 ****        7.8282   -7.7198    9.0548 H       3  PIP33       0.1026
     22 ****        9.6771   -6.1014    9.4622 H       3  PIP33       0.1150
     23 ****        8.9447   -6.6558   10.9918 H       3  PIP33       0.0874
     24 ****       10.8141   -3.7262   11.1590 C.3     4  SULFONYL4   -0.8100
     25 S1          9.4551   -3.4139   10.0198 S.O2    4  SULFONYL4    2.5762
     26 ****        7.0117   -3.4035   11.4064 H       3  PIP33       0.1298
     27 ****        7.2843   -4.9802   12.1911 H       3  PIP33       0.0910
     28 ****        5.0921   -4.9768   11.0514 H       3  PIP33       0.1350
     29 ****        5.8421   -4.5075    9.5109 H       3  PIP33       0.0832
     30 S           5.7723  -10.4650   12.5062 S.O2    1  TOS11       2.6188
     31 O1          6.7297  -11.4360   12.0094 O.2     1  TOS11      -0.8709
     32 O2          4.7756  -10.9004   13.4682 O.2     1  TOS11      -0.8582
     33 C1          6.6423   -9.0343   13.1407 C.ar    1  TOS11      -0.7154
     34 C2          5.9784   -7.9545   13.7461 C.ar    1  TOS11       0.0602
     35 C3          6.7248   -6.8910   14.2766 C.ar    1  TOS11      -0.0568
     36 C4          8.1187   -6.8785   14.1445 C.ar    1  TOS11      -0.0468
     37 C5          8.7724   -7.9290   13.4978 C.ar    1  TOS11      -0.1717
     38 C6          8.0332   -9.0019   12.9967 C.ar    1  TOS11      -0.0240
     39 ****        6.6551   -5.0176   15.3567 H       1  TOS11       0.1389
     40 C           5.5297   -7.4751   10.4615 C.2     2  APM22       0.2750
     41 CA          5.7627   -8.9433   10.1694 C.3     2  APM22       0.0503
     42 CB          5.3695   -9.3148    8.7124 C.3     2  APM22      -0.1267
     43 CG          4.0535   -8.6392    8.2942 C.ar    2  APM22      -0.0544
     44 CD1         2.8371   -9.3303    8.3403 C.ar    2  APM22      -0.0761
     45 CD2         4.0685   -7.3128    7.8480 C.ar    2  APM22      -0.0561
     46 CE1         1.6449   -8.7044    7.9566 C.ar    2  APM22      -0.1498
     47 CE2         2.8794   -6.6698    7.4983 C.ar    2  APM22      -0.1028
     48 CZ          1.6686   -7.3627    7.5612 C.ar    2  APM22      -0.0857
     49 CF          0.3329   -9.4653    7.9600 C.3     2  APM22       0.3308
     50 O           4.5023   -7.2483   11.0815 O.2     2  APM22      -0.3650
     51 N           4.9876   -9.7280   11.1252 N.3     2  APM22      -0.8333
     52 NG1        -0.6675   -9.0138    7.2470 N.3     2  APM22      -0.3259
     53 NG2         0.2197  -10.5570    8.6721 N.3     2  APM22      -0.3235
     54 N1          6.3557   -6.4573   10.0785 N.am    3  PIP33      -0.3360
     55 C2          7.5778   -6.6810    9.2974 C.3     3  PIP33      -0.0306
     56 C3          8.7642   -6.0707   10.0775 C.3     3  PIP33      -0.0223
     57 N4          8.4043   -4.7105   10.4515 N.3     3  PIP33      -0.8086
     58 C5          7.1898   -4.4729   11.2192 C.3     3  PIP33      -0.0257
     59 C6          6.0017   -5.0803   10.4382 C.3     3  PIP33      -0.0248
     60 O           8.8489   -2.1448   10.3709 O.2     4  SULFONYL4   -0.8696
     61 O           9.9286   -3.6184    8.6647 O.2     4  SULFONYL4   -0.8725
     62 ****       10.4393   -3.6952   12.1924 H       4  SULFONYL4    0.1380
     63 ****       11.5842   -2.9528   11.0259 H       4  SULFONYL4    0.1546
     64 ****       11.2555   -4.7137   10.9622 H       4  SULFONYL4    0.1344
     65 ****        2.8570   -6.8547   14.5898 H       1  TOS11       0.1388
     66 ****        4.1967   -5.0203   15.5967 H       1  TOS11       0.1421
     67 ****        8.7065   -6.0546   14.5379 H       1  TOS11       0.1411
@<TRIPOS>BOND
     1    34     1   ar
     2     2    35   ar
     3    37     3    1
     4    38     4    1
     5     1     5   ar
     6     6     2   ar
     7     5     6   ar
     8    41     8    1
     9    42     9    1
    10    42    10    1
    11    44    11    1
    12    45    12    1
    13    47    13    1
    14    48    14    1
    15    51    15    1
    16    52    16    1
    17    52    17    1
    18    53    18    1
    19    53    19    1
    20    55    20    1
    21    55    21    1
    22    56    22    1
    23    56    23    1
    24    57    25    1
    25    25    60    2
    26    58    26    1
    27    58    27    1
    28    59    28    1
    29    59    29    1
    30    30    33    1
    31    30    32    2
    32    30    31    2
    33    33    38   ar
    34    33    34   ar
    35    34    35   ar
    36    35    36   ar
    37     1     7    1
    38    36    37   ar
    39    37    38   ar
    40    40    50    2
    41    40    41    1
    42    41    51    1
    43    41    42    1
    44    42    43    1
    45    43    45   ar
    46    43    44   ar
    47    44    46   ar
    48    46    49    1
    49    46    48   ar
    50    48    47   ar
    51    47    45   ar
    52    49    53    1
    53    49    52    1
    54    59    54    1
    55    54    55    1
    56    55    56    1
    57    56    57    1
    58    57    58    1
    59    58    59    1
    60    40    54   am
    61    51    30    1
    62    25    61    2
    63    25    24    1
    64    24    62    1
    65    24    63    1
    66    24    64    1
    67     2    39    1
    68     5    65    1
    69     6    66    1
    70    36    67    1
