#	Name:			mol17
#	Creating user name:	becker
#	Creation time:		Wed Apr 19 13:40:35 2006

#	Modifying user name:	becker
#	Modification time:	Wed Apr 19 13:40:35 2006

@<TRIPOS>MOLECULE
mol17
   45    47     1     0     0
SMALL
NO_CHARGES


@<TRIPOS>ATOM
      1 C           0.511000   -3.519000   -0.689000 C.ar      1 <1>         0.000000 
      2 H           0.054000   -4.463000   -0.969000 H         1 <1>         0.000000 
      3 C           1.890000   -3.442000   -0.488000 C.ar      1 <1>         0.000000 
      4 C           2.470000   -2.221000   -0.137000 C.ar      1 <1>         0.000000 
      5 H           3.545000   -2.173000    0.001000 H         1 <1>         0.000000 
      6 C           1.686000   -1.074000    0.032000 C.ar      1 <1>         0.000000 
      7 C           0.296000   -1.157000   -0.148000 C.ar      1 <1>         0.000000 
      8 C          -0.276000   -2.376000   -0.531000 C.ar      1 <1>         0.000000 
      9 H          -1.343000   -2.445000   -0.716000 H         1 <1>         0.000000 
     10 N          -0.510000   -0.083000    0.047000 N.pl3     1 <1>         0.000000 
     11 C          -1.655000   -0.107000    0.660000 C.ar      1 <1>         0.000000 
     12 H          -2.136000   -0.969000    1.120000 H         1 <1>         0.000000 
     13 N          -2.155000    1.043000    0.657000 N.ar      1 <1>         0.000000 
     14 C          -1.283000    1.961000   -0.022000 C.ar      1 <1>         0.000000 
     15 C          -0.267000    1.141000   -0.363000 C.ar      1 <1>         0.000000 
     16 C           0.999000    1.479000   -1.095000 C.3       1 <1>         0.000000 
     17 H           0.948000    2.480000   -1.544000 H         1 <1>         0.000000 
     18 H           1.177000    0.764000   -1.913000 H         1 <1>         0.000000 
     19 N           2.056000    1.413000   -0.094000 N.am      1 <1>         0.000000 
     20 C           2.400000    0.204000    0.425000 C.2       1 <1>         0.000000 
     21 O           3.311000    0.079000    1.228000 O.2       1 <1>         0.000000 
     22 C           2.736000    2.626000    0.366000 C.3       1 <1>         0.000000 
     23 H           3.456000    2.460000    1.181000 H         1 <1>         0.000000 
     24 H           1.982000    3.340000    0.730000 H         1 <1>         0.000000 
     25 H           3.276000    3.080000   -0.479000 H         1 <1>         0.000000 
     26 C          -1.565000    3.394000   -0.216000 C.2       1 <1>         0.000000 
     27 O          -2.522000    3.860000    0.383000 O.2       1 <1>         0.000000 
     28 O          -0.784000    4.130000   -1.022000 O.3       1 <1>         0.000000 
     29 C          -1.227000    5.486000   -1.260000 C.3       1 <1>         0.000000 
     30 H          -1.430000    6.000000   -0.304000 H         1 <1>         0.000000 
     31 C          -0.049000    6.235000   -1.946000 C.3       1 <1>         0.000000 
     32 H          -0.279000    7.309000   -2.035000 H         1 <1>         0.000000 
     33 H           0.115000    5.827000   -2.956000 H         1 <1>         0.000000 
     34 C           1.268000    6.105000   -1.136000 C.3       1 <1>         0.000000 
     35 H           2.064000    6.702000   -1.608000 H         1 <1>         0.000000 
     36 H           1.598000    5.058000   -1.104000 H         1 <1>         0.000000 
     37 H           1.124000    6.464000   -0.105000 H         1 <1>         0.000000 
     38 C          -2.501000    5.485000   -2.161000 C.3       1 <1>         0.000000 
     39 H          -3.314000    4.937000   -1.661000 H         1 <1>         0.000000 
     40 H          -2.278000    4.957000   -3.103000 H         1 <1>         0.000000 
     41 C          -3.040000    6.904000   -2.486000 C.3       1 <1>         0.000000 
     42 H          -4.012000    6.828000   -2.999000 H         1 <1>         0.000000 
     43 H          -2.355000    7.454000   -3.149000 H         1 <1>         0.000000 
     44 H          -3.180000    7.481000   -1.558000 H         1 <1>         0.000000 
     45 Cl          2.887000   -4.870000   -0.676000 Cl        1 <1>         0.000000 
@<TRIPOS>BOND
     1    2    1 1    
     2    1    3 ar   
     3    3    4 ar   
     4    4    5 1    
     5    4    6 ar   
     6    6    7 ar   
     7    7    8 ar   
     8    8    9 1    
     9    8    1 ar   
    10    7   10 1    
    11   10   11 ar   
    12   11   12 1    
    13   11   13 ar   
    14   13   14 ar   
    15   14   15 ar   
    16   15   10 ar   
    17   15   16 1    
    18   16   17 1    
    19   16   18 1    
    20   16   19 1    
    21   19   20 am   
    22   20    6 1    
    23   20   21 2    
    24   19   22 1    
    25   22   23 1    
    26   22   24 1    
    27   22   25 1    
    28   14   26 1    
    29   26   27 2    
    30   26   28 1    
    31   28   29 1    
    32   29   30 1    
    33   29   31 1    
    34   31   32 1    
    35   31   33 1    
    36   31   34 1    
    37   34   35 1    
    38   34   36 1    
    39   34   37 1    
    40   29   38 1    
    41   38   39 1    
    42   38   40 1    
    43   38   41 1    
    44   41   42 1    
    45   41   43 1    
    46   41   44 1    
    47    3   45 1    
@<TRIPOS>SUBSTRUCTURE
     1 ****        2 TEMP              0 ****  ****    0 ROOT 
