#	Name:			ro15_5623
#	Creating user name:	becker
#	Creation time:		Wed Apr 19 13:40:35 2006

#	Modifying user name:	becker
#	Modification time:	Wed Apr 19 13:40:35 2006

@<TRIPOS>MOLECULE
ro15_5623
   36    38     1     0     0
SMALL
NO_CHARGES


@<TRIPOS>ATOM
      1 C           0.644000   -3.570000   -0.691000 C.ar      1 <1>         0.000000 
      2 H           0.207000   -4.536000   -0.921000 H         1 <1>         0.000000 
      3 C           2.029000   -3.427000   -0.562000 C.ar      1 <1>         0.000000 
      4 H           2.679000   -4.290000   -0.650000 H         1 <1>         0.000000 
      5 C           2.565000   -2.160000   -0.319000 C.ar      1 <1>         0.000000 
      6 C           1.741000   -1.040000   -0.160000 C.ar      1 <1>         0.000000 
      7 C           0.348000   -1.197000   -0.236000 C.ar      1 <1>         0.000000 
      8 C          -0.186000   -2.458000   -0.530000 C.ar      1 <1>         0.000000 
      9 H          -1.258000   -2.583000   -0.643000 H         1 <1>         0.000000 
     10 N          -0.495000   -0.157000   -0.021000 N.pl3     1 <1>         0.000000 
     11 C          -1.590000   -0.207000    0.675000 C.ar      1 <1>         0.000000 
     12 H          -1.998000   -1.073000    1.195000 H         1 <1>         0.000000 
     13 N          -2.138000    0.921000    0.677000 N.ar      1 <1>         0.000000 
     14 C          -1.354000    1.852000   -0.086000 C.ar      1 <1>         0.000000 
     15 C          -0.340000    1.060000   -0.490000 C.ar      1 <1>         0.000000 
     16 C           0.840000    1.422000   -1.343000 C.3       1 <1>         0.000000 
     17 H           0.692000    2.383000   -1.854000 H         1 <1>         0.000000 
     18 H           0.987000    0.666000   -2.131000 H         1 <1>         0.000000 
     19 N           1.976000    1.454000   -0.432000 N.am      1 <1>         0.000000 
     20 C           2.420000    0.290000    0.107000 C.2       1 <1>         0.000000 
     21 O           3.404000    0.265000    0.830000 O.2       1 <1>         0.000000 
     22 C           2.668000    2.695000   -0.080000 C.3       1 <1>         0.000000 
     23 H           2.782000    2.774000    1.012000 H         1 <1>         0.000000 
     24 H           2.119000    3.586000   -0.420000 H         1 <1>         0.000000 
     25 H           3.666000    2.704000   -0.544000 H         1 <1>         0.000000 
     26 C          -1.676000    3.274000   -0.290000 C.2       1 <1>         0.000000 
     27 O          -2.748000    3.683000    0.128000 O.2       1 <1>         0.000000 
     28 O          -0.797000    4.072000   -0.912000 O.3       1 <1>         0.000000 
     29 C          -1.216000    5.445000   -1.042000 C.3       1 <1>         0.000000 
     30 H          -1.383000    5.897000   -0.050000 H         1 <1>         0.000000 
     31 H          -2.144000    5.514000   -1.634000 H         1 <1>         0.000000 
     32 C          -0.093000    6.223000   -1.768000 C.3       1 <1>         0.000000 
     33 H           0.841000    6.167000   -1.186000 H         1 <1>         0.000000 
     34 H          -0.373000    7.281000   -1.889000 H         1 <1>         0.000000 
     35 H           0.085000    5.786000   -2.763000 H         1 <1>         0.000000 
     36 F           3.887000   -2.031000   -0.241000 F         1 <1>         0.000000 
@<TRIPOS>BOND
     1    2    1 1    
     2    1    3 ar   
     3    3    4 1    
     4    3    5 ar   
     5    5    6 ar   
     6    6    7 ar   
     7    7    8 ar   
     8    8    9 1    
     9    8    1 ar   
    10    7   10 1    
    11   10   11 ar   
    12   11   12 1    
    13   11   13 ar   
    14   13   14 ar   
    15   14   15 ar   
    16   15   10 ar   
    17   15   16 1    
    18   16   17 1    
    19   16   18 1    
    20   16   19 1    
    21   19   20 am   
    22   20    6 1    
    23   20   21 2    
    24   19   22 1    
    25   22   23 1    
    26   22   24 1    
    27   22   25 1    
    28   14   26 1    
    29   26   27 2    
    30   26   28 1    
    31   28   29 1    
    32   29   30 1    
    33   29   31 1    
    34   29   32 1    
    35   32   33 1    
    36   32   34 1    
    37   32   35 1    
    38    5   36 1    
@<TRIPOS>SUBSTRUCTURE
     1 ****        2 TEMP              0 ****  ****    0 ROOT 
