#	Name:			ro19_4603
#	Creating user name:	becker
#	Creation time:		Wed Apr 19 13:40:35 2006

#	Modifying user name:	becker
#	Modification time:	Wed Apr 19 13:40:35 2006

@<TRIPOS>MOLECULE
ro19_4603
   39    41     1     0     0
SMALL
NO_CHARGES


@<TRIPOS>ATOM
      1 C           1.213000   -1.982000   -0.251000 C.ar      1 <1>         0.000000 
      2 H           0.392000   -2.615000    0.082000 H         1 <1>         0.000000 
      3 C           2.391000   -2.534000   -0.545000 C.ar      1 <1>         0.000000 
      4 H           2.609000   -3.599000   -0.469000 H         1 <1>         0.000000 
      5 S           3.586000   -1.351000   -1.084000 S.3       1 <1>         0.000000 
      6 C           2.385000   -0.060000   -0.799000 C.ar      1 <1>         0.000000 
      7 C           1.173000   -0.515000   -0.440000 C.ar      1 <1>         0.000000 
      8 N           0.092000    0.199000   -0.227000 N.pl3     1 <1>         0.000000 
      9 C          -0.945000   -0.204000    0.449000 C.ar      1 <1>         0.000000 
     10 H          -1.131000   -1.156000    0.942000 H         1 <1>         0.000000 
     11 N          -1.795000    0.713000    0.517000 N.ar      1 <1>         0.000000 
     12 C          -1.331000    1.869000   -0.194000 C.ar      1 <1>         0.000000 
     13 C          -0.146000    1.423000   -0.662000 C.ar      1 <1>         0.000000 
     14 C           0.742000    2.165000   -1.624000 C.3       1 <1>         0.000000 
     15 H           0.806000    1.538000   -2.528000 H         1 <1>         0.000000 
     16 H           0.281000    3.104000   -1.954000 H         1 <1>         0.000000 
     17 N           2.090000    2.399000   -1.146000 N.am      1 <1>         0.000000 
     18 C           2.879000    1.329000   -0.903000 C.2       1 <1>         0.000000 
     19 O           4.079000    1.471000   -0.727000 O.2       1 <1>         0.000000 
     20 C           2.672000    3.740000   -1.066000 C.3       1 <1>         0.000000 
     21 H           1.894000    4.509000   -0.942000 H         1 <1>         0.000000 
     22 H           3.356000    3.828000   -0.207000 H         1 <1>         0.000000 
     23 H           3.230000    3.952000   -1.990000 H         1 <1>         0.000000 
     24 C          -2.088000    3.128000   -0.309000 C.2       1 <1>         0.000000 
     25 O          -3.238000    3.118000    0.095000 O.2       1 <1>         0.000000 
     26 O          -1.494000    4.212000   -0.830000 O.3       1 <1>         0.000000 
     27 C          -2.266000    5.432000   -0.925000 C.3       1 <1>         0.000000 
     28 C          -1.264000    6.436000   -1.565000 C.3       1 <1>         0.000000 
     29 H          -0.375000    6.548000   -0.924000 H         1 <1>         0.000000 
     30 H          -0.932000    6.068000   -2.548000 H         1 <1>         0.000000 
     31 H          -1.721000    7.428000   -1.701000 H         1 <1>         0.000000 
     32 C          -2.690000    5.980000    0.469000 C.3       1 <1>         0.000000 
     33 H          -3.095000    6.999000    0.371000 H         1 <1>         0.000000 
     34 H          -1.815000    6.015000    1.137000 H         1 <1>         0.000000 
     35 H          -3.463000    5.362000    0.945000 H         1 <1>         0.000000 
     36 C          -3.492000    5.288000   -1.874000 C.3       1 <1>         0.000000 
     37 H          -3.934000    6.275000   -2.077000 H         1 <1>         0.000000 
     38 H          -4.282000    4.655000   -1.445000 H         1 <1>         0.000000 
     39 H          -3.174000    4.843000   -2.829000 H         1 <1>         0.000000 
@<TRIPOS>BOND
     1    2    1 1    
     2    1    3 ar   
     3    3    4 1    
     4    3    5 ar   
     5    5    6 ar   
     6    6    7 ar   
     7    7    1 ar   
     8    7    8 1    
     9    8    9 ar   
    10    9   10 1    
    11    9   11 ar   
    12   11   12 ar   
    13   12   13 ar   
    14   13    8 ar   
    15   13   14 1    
    16   14   15 1    
    17   14   16 1    
    18   14   17 1    
    19   17   18 am   
    20   18    6 1    
    21   18   19 2    
    22   17   20 1    
    23   20   21 1    
    24   20   22 1    
    25   20   23 1    
    26   12   24 1    
    27   24   25 2    
    28   24   26 1    
    29   26   27 1    
    30   27   28 1    
    31   28   29 1    
    32   28   30 1    
    33   28   31 1    
    34   27   32 1    
    35   32   33 1    
    36   32   34 1    
    37   32   35 1    
    38   27   36 1    
    39   36   37 1    
    40   36   38 1    
    41   36   39 1    
@<TRIPOS>SUBSTRUCTURE
     1 ****        2 TEMP              0 ****  ****    0 ROOT 
