#	Name:			ro21_7254
#	Creating user name:	becker
#	Creation time:		Wed Apr 19 13:40:35 2006

#	Modifying user name:	becker
#	Modification time:	Wed Apr 19 13:40:35 2006

@<TRIPOS>MOLECULE
ro21_7254
   45    48     1     0     0
SMALL
NO_CHARGES


@<TRIPOS>ATOM
      1 C           1.128000   -3.505000   -1.099000 C.ar      1 <1>         0.000000 
      2 H           0.821000   -4.507000   -1.380000 H         1 <1>         0.000000 
      3 C           2.483000   -3.205000   -0.951000 C.ar      1 <1>         0.000000 
      4 C           2.869000   -1.916000   -0.577000 C.ar      1 <1>         0.000000 
      5 H           3.926000   -1.688000   -0.492000 H         1 <1>         0.000000 
      6 C           1.913000   -0.927000   -0.314000 C.ar      1 <1>         0.000000 
      7 C           0.553000   -1.221000   -0.493000 C.ar      1 <1>         0.000000 
      8 C           0.171000   -2.509000   -0.888000 C.ar      1 <1>         0.000000 
      9 H          -0.876000   -2.749000   -1.045000 H         1 <1>         0.000000 
     10 N          -0.390000   -0.269000   -0.292000 N.pl3     1 <1>         0.000000 
     11 C          -1.558000   -0.447000    0.248000 C.ar      1 <1>         0.000000 
     12 N          -2.177000    0.644000    0.271000 N.ar      1 <1>         0.000000 
     13 C          -1.369000    1.684000   -0.304000 C.ar      1 <1>         0.000000 
     14 C          -0.258000    0.992000   -0.629000 C.ar      1 <1>         0.000000 
     15 C           1.007000    1.479000   -1.279000 C.3       1 <1>         0.000000 
     16 H           0.884000    2.498000   -1.668000 H         1 <1>         0.000000 
     17 H           1.297000    0.844000   -2.133000 H         1 <1>         0.000000 
     18 N           2.016000    1.554000   -0.247000 N.2       1 <1>         0.000000 
     19 C           2.424000    0.417000    0.176000 C.2       1 <1>         0.000000 
     20 C           3.499000    0.411000    1.243000 C.ar      1 <1>         0.000000 
     21 C           4.464000    1.426000    1.313000 C.ar      1 <1>         0.000000 
     22 C           5.433000    1.405000    2.320000 C.ar      1 <1>         0.000000 
     23 H           6.166000    2.204000    2.380000 H         1 <1>         0.000000 
     24 C           5.467000    0.362000    3.248000 C.ar      1 <1>         0.000000 
     25 H           6.228000    0.344000    4.022000 H         1 <1>         0.000000 
     26 C           4.516000   -0.659000    3.175000 C.ar      1 <1>         0.000000 
     27 H           4.543000   -1.477000    3.888000 H         1 <1>         0.000000 
     28 C           3.531000   -0.626000    2.184000 C.ar      1 <1>         0.000000 
     29 H           2.785000   -1.413000    2.160000 H         1 <1>         0.000000 
     30 Cl          4.494000    2.734000    0.145000 Cl        1 <1>         0.000000 
     31 C          -1.772000    3.094000   -0.437000 C.2       1 <1>         0.000000 
     32 O          -2.895000    3.403000   -0.070000 O.2       1 <1>         0.000000 
     33 O          -0.911000    3.989000   -0.944000 O.3       1 <1>         0.000000 
     34 C          -1.420000    5.336000   -1.020000 C.3       1 <1>         0.000000 
     35 H          -1.681000    5.711000   -0.016000 H         1 <1>         0.000000 
     36 H          -2.313000    5.378000   -1.667000 H         1 <1>         0.000000 
     37 C          -0.317000    6.237000   -1.625000 C.3       1 <1>         0.000000 
     38 H          -0.667000    7.278000   -1.701000 H         1 <1>         0.000000 
     39 H          -0.048000    5.878000   -2.631000 H         1 <1>         0.000000 
     40 H           0.582000    6.209000   -0.989000 H         1 <1>         0.000000 
     41 C          -2.128000   -1.727000    0.787000 C.3       1 <1>         0.000000 
     42 H          -3.140000   -1.541000    1.177000 H         1 <1>         0.000000 
     43 H          -1.486000   -2.103000    1.597000 H         1 <1>         0.000000 
     44 H          -2.178000   -2.474000   -0.019000 H         1 <1>         0.000000 
     45 Cl          3.693000   -4.439000   -1.233000 Cl        1 <1>         0.000000 
@<TRIPOS>BOND
     1    2    1 1    
     2    1    3 ar   
     3    3    4 ar   
     4    4    5 1    
     5    4    6 ar   
     6    6    7 ar   
     7    7    8 ar   
     8    8    9 1    
     9    8    1 ar   
    10    7   10 1    
    11   10   11 ar   
    12   11   12 ar   
    13   12   13 ar   
    14   13   14 ar   
    15   14   10 ar   
    16   14   15 1    
    17   15   16 1    
    18   15   17 1    
    19   15   18 1    
    20   18   19 2    
    21   19    6 1    
    22   19   20 1    
    23   20   21 ar   
    24   21   22 ar   
    25   22   23 1    
    26   22   24 ar   
    27   24   25 1    
    28   24   26 ar   
    29   26   27 1    
    30   26   28 ar   
    31   28   29 1    
    32   28   20 ar   
    33   21   30 1    
    34   13   31 1    
    35   31   32 2    
    36   31   33 1    
    37   33   34 1    
    38   34   35 1    
    39   34   36 1    
    40   34   37 1    
    41   37   38 1    
    42   37   39 1    
    43   37   40 1    
    44   11   41 1    
    45   41   42 1    
    46   41   43 1    
    47   41   44 1    
    48    3   45 1    
@<TRIPOS>SUBSTRUCTURE
     1 ****        2 TEMP              0 ****  ****    0 ROOT 
