@<TRIPOS>MOLECULE
Mol_103
 92 97 0 0 0
SMALL
GASTEIGER
Energy = 0

@<TRIPOS>ATOM
      1 C           2.9375   -4.7683   -0.2212 C.2     1  LIG11       0.3060
      2 C           2.4627   -5.4943    2.0515 C.3     1  LIG11       0.0416
      3 C           0.9846   -3.7656    0.9132 C.3     1  LIG11       0.0601
      4 C           1.1399   -2.2391    0.7080 C.3     1  LIG11       0.1016
      5 C           1.6093   -1.8909   -0.7321 C.3     1  LIG11       0.1016
      6 C           3.0289   -2.4316   -1.0329 C.3     1  LIG11       0.0601
      7 C           3.6919   -4.3839   -2.5106 C.3     1  LIG11       0.0417
      8 C           2.7000   -4.7825    3.3967 C.ar    1  LIG11      -0.0293
      9 C           1.9350   -5.1055    4.5217 C.ar    1  LIG11      -0.0449
     10 C           2.1970   -4.5039    5.7603 C.ar    1  LIG11       0.0374
     11 C           3.1399   -3.4761    5.8517 C.ar    1  LIG11      -0.0496
     12 C           3.8845   -3.1188    4.7278 C.ar    1  LIG11      -0.0607
     13 C           3.7090   -3.8221    3.5332 C.ar    1  LIG11      -0.0570
     14 C           1.4924   -4.9511    7.0207 C.2     1  LIG11       0.2493
     15 H           3.3690   -6.1097    1.9416 H       1  LIG11       0.0514
     16 C           0.5790   -6.8168    8.3336 C.ar    1  LIG11       0.1251
     17 N           0.7513   -8.1441    8.4882 N.ar    1  LIG11      -0.2399
     18 C          -0.0908   -4.3732   -0.0362 C.3     1  LIG11      -0.0064
     19 C          -0.6275   -5.7265    0.4545 C.ar    1  LIG11      -0.0455
     20 C          -1.6777   -5.7652    1.3793 C.ar    1  LIG11      -0.0585
     21 C          -2.1926   -6.9888    1.8173 C.ar    1  LIG11      -0.0615
     22 C          -1.6586   -8.1854    1.3319 C.ar    1  LIG11      -0.0617
     23 C          -0.6090   -8.1538    0.4097 C.ar    1  LIG11      -0.0615
     24 C          -0.0914   -6.9289   -0.0224 C.ar    1  LIG11      -0.0585
     25 C           4.0937   -1.9190   -0.0227 C.3     1  LIG11      -0.0064
     26 C           5.5492   -2.1550   -0.4555 C.ar    1  LIG11      -0.0455
     27 C           6.2180   -1.1735   -1.1952 C.ar    1  LIG11      -0.0585
     28 C           7.5566   -1.3469   -1.5584 C.ar    1  LIG11      -0.0615
     29 C           8.2362   -2.5108   -1.1899 C.ar    1  LIG11      -0.0617
     30 C           7.5725   -3.4996   -0.4584 C.ar    1  LIG11      -0.0615
     31 C           6.2316   -3.3259   -0.1005 C.ar    1  LIG11      -0.0585
     32 C           2.7391   -4.1432   -3.6932 C.ar    1  LIG11      -0.0266
     33 C           1.4787   -4.7509   -3.7284 C.ar    1  LIG11      -0.0568
     34 C           0.5904   -4.4971   -4.7785 C.ar    1  LIG11      -0.0580
     35 C           0.9962   -3.7059   -5.8570 C.ar    1  LIG11      -0.0199
     36 C           2.2766   -3.1471   -5.8619 C.ar    1  LIG11       0.1204
     37 C           3.1239   -3.3318   -4.7656 C.ar    1  LIG11      -0.0153
     38 H           1.6150   -6.1928    2.1210 H       1  LIG11       0.0514
     39 H           0.5320   -3.8353    1.9183 H       1  LIG11       0.0531
     40 O           2.7095   -2.4039   -6.9608 O.3     1  LIG11      -0.4951
     41 C           3.7678   -3.0218   -7.7145 C.3     1  LIG11       0.0788
     42 N           2.2050   -4.5856    0.9177 N.am    1  LIG11      -0.2752
     43 N           3.1295   -3.8816   -1.2432 N.am    1  LIG11      -0.2752
     44 N           1.1919   -6.2585    7.1825 N.am    1  LIG11      -0.2664
     45 C           0.2411   -8.8076    9.5432 C.ar    1  LIG11       0.0326
     46 H           1.8480   -1.8712    1.4679 H       1  LIG11       0.0638
     47 H           0.9372   -2.3231   -1.4918 H       1  LIG11       0.0638
     48 O           3.4836   -5.8530   -0.3335 O.2     1  LIG11      -0.2524
     49 O          -0.1340   -1.6316    1.0104 O.3     1  LIG11      -0.3873
     50 O           1.6267   -0.4632   -0.9351 O.3     1  LIG11      -0.3873
     51 O           1.2614   -4.0879    7.8505 O.2     1  LIG11      -0.2698
     52 H           3.3004   -1.9314   -1.9796 H       1  LIG11       0.0531
     53 C          -0.4951   -8.1256   10.5168 C.ar    1  LIG11      -0.0322
     54 H           3.8969   -5.4646   -2.5423 H       1  LIG11       0.0514
     55 C          -0.6956   -6.7491   10.3709 C.ar    1  LIG11      -0.0542
     56 C          -0.1708   -6.0822    9.2615 C.ar    1  LIG11      -0.0213
     57 H           4.6598   -3.8861   -2.6782 H       1  LIG11       0.0514
     58 H           1.1362   -5.8332    4.4330 H       1  LIG11       0.0628
     59 H           3.3053   -2.9660    6.7964 H       1  LIG11       0.0625
     60 H           4.6039   -2.3072    4.7893 H       1  LIG11       0.0618
     61 H           4.3832   -3.6273    2.7159 H       1  LIG11       0.0621
     62 H           0.3320   -4.5123   -1.0344 H       1  LIG11       0.0332
     63 H          -0.9519   -3.6948   -0.1445 H       1  LIG11       0.0332
     64 H          -2.1026   -4.8418    1.7601 H       1  LIG11       0.0620
     65 H          -3.0085   -7.0102    2.5336 H       1  LIG11       0.0618
     66 H          -2.0586   -9.1367    1.6703 H       1  LIG11       0.0618
     67 H          -0.1961   -9.0829    0.0282 H       1  LIG11       0.0618
     68 H           0.7295   -6.9193   -0.7323 H       1  LIG11       0.0620
     69 H           3.9588   -2.4413    0.9207 H       1  LIG11       0.0332
     70 H           3.9543   -0.8446    0.1780 H       1  LIG11       0.0332
     71 H           5.7001   -0.2656   -1.4868 H       1  LIG11       0.0620
     72 H           8.0690   -0.5758   -2.1255 H       1  LIG11       0.0618
     73 H           9.2764   -2.6457   -1.4713 H       1  LIG11       0.0618
     74 H           8.1015   -4.4025   -0.1676 H       1  LIG11       0.0618
     75 H           5.7283   -4.1074    0.4601 H       1  LIG11       0.0620
     76 H           1.1883   -5.4364   -2.9428 H       1  LIG11       0.0621
     77 H          -0.4108   -4.9186   -4.7608 H       1  LIG11       0.0619
     78 H           0.3245   -3.5274   -6.6907 H       1  LIG11       0.0654
     79 H           4.0898   -2.8413   -4.7580 H       1  LIG11       0.0657
     80 H           4.6572   -3.2206   -7.0972 H       1  LIG11       0.0660
     81 H           4.0585   -2.3381   -8.5252 H       1  LIG11       0.0660
     82 H           3.4182   -3.9678   -8.1559 H       1  LIG11       0.0660
     83 H           1.4901   -6.9154    6.4939 H       1  LIG11       0.1566
     84 H           0.4111   -9.8757    9.6199 H       1  LIG11       0.0833
     85 H          -0.0961   -0.6859    1.1181 H       1  LIG11       0.2100
     86 H           0.7573   -0.0744   -0.9603 H       1  LIG11       0.2100
     87 H          -1.2621   -6.1966   11.1138 H       1  LIG11       0.0622
     88 H          -0.3710   -5.0251    9.1503 H       1  LIG11       0.0652
     89 H          -2.1243   -9.1223   11.5011 H       1  LIG11       0.0278
     90 H          -1.0349   -8.2365   12.6188 H       1  LIG11       0.0278
     91 H          -0.5166   -9.7965   11.9205 H       1  LIG11       0.0278
     92 C          -1.0763   -8.8705   11.7207 C.3     1  LIG11      -0.0383
@<TRIPOS>BOND
     1    81    41    1
     2    82    41    1
     3    41    80    1
     4    41    40    1
     5    40    36    1
     6    78    35    1
     7    36    35   ar
     8    36    37   ar
     9    35    34   ar
    10    34    77    1
    11    34    33   ar
    12    37    79    1
    13    37    32   ar
    14    33    32   ar
    15    33    76    1
    16    32     7    1
    17    57     7    1
    18    54     7    1
    19     7    43    1
    20    72    28    1
    21    52     6    1
    22    28    27   ar
    23    28    29   ar
    24    47     5    1
    25    71    27    1
    26    73    29    1
    27    43     6    1
    28    43     1   am
    29    27    26   ar
    30    29    30   ar
    31    62    18    1
    32     6     5    1
    33     6    25    1
    34    86    50    1
    35    50     5    1
    36    68    24    1
    37     5     4    1
    38    30    74    1
    39    30    31   ar
    40    26    31   ar
    41    26    25    1
    42    48     1    2
    43     1    42   am
    44    63    18    1
    45    31    75    1
    46    18    19    1
    47    18     3    1
    48    25    70    1
    49    25    69    1
    50    24    23   ar
    51    24    19   ar
    52    67    23    1
    53    23    22   ar
    54    19    20   ar
    55     4     3    1
    56     4    49    1
    57     4    46    1
    58     3    42    1
    59     3    39    1
    60    42     2    1
    61    49    85    1
    62    22    66    1
    63    22    21   ar
    64    20    64    1
    65    20    21   ar
    66    21    65    1
    67    15     2    1
    68     2    38    1
    69     2     8    1
    70    61    13    1
    71     8    13   ar
    72     8     9   ar
    73    13    12   ar
    74    58     9    1
    75     9    10   ar
    76    12    60    1
    77    12    11   ar
    78    10    11   ar
    79    10    14    1
    80    11    59    1
    81    83    44    1
    82    14    44   am
    83    14    51    2
    84    44    16    1
    85    16    17   ar
    86    16    56   ar
    87    17    45   ar
    88    88    56    1
    89    56    55   ar
    90    45    84    1
    91    45    53   ar
    92    55    53   ar
    93    55    87    1
    94    53    92    1
    95    89    92    1
    96    92    91    1
    97    92    90    1
