@<TRIPOS>MOLECULE
Mol_79
 104 110 0 0 0
SMALL
GASTEIGER
Energy = 0

@<TRIPOS>ATOM
      1 C           3.0040   -4.8274   -0.0429 C.2     1  LIG11       0.3060
      2 C           2.4538   -5.4826    2.2273 C.3     1  LIG11       0.0416
      3 C           0.9414   -3.8907    0.9515 C.3     1  LIG11       0.0601
      4 C           1.0572   -2.3683    0.7011 C.3     1  LIG11       0.1016
      5 C           1.5268   -2.0601   -0.7463 C.3     1  LIG11       0.1016
      6 C           2.9733   -2.5504   -1.0045 C.3     1  LIG11       0.0601
      7 C           3.8031   -4.5671   -2.3116 C.3     1  LIG11       0.0416
      8 C           2.5900   -4.6522    3.5127 C.ar    1  LIG11      -0.0293
      9 C           1.6334   -4.7674    4.5239 C.ar    1  LIG11      -0.0449
     10 C           1.8201   -4.1391    5.7608 C.ar    1  LIG11       0.0374
     11 C           2.8755   -3.2358    5.9220 C.ar    1  LIG11      -0.0496
     12 C           3.8086   -3.0695    4.8950 C.ar    1  LIG11      -0.0607
     13 C           3.6794   -3.7941    3.7051 C.ar    1  LIG11      -0.0570
     14 C           0.8984   -4.4636    6.9162 C.2     1  LIG11       0.2493
     15 C           6.2939   -3.7849   -8.3333 C.ar    1  LIG11       0.1280
     16 N           5.6895   -3.6800   -9.5335 N.ar    1  LIG11      -0.2399
     17 C           6.3797   -3.8001  -10.6837 C.ar    1  LIG11       0.0297
     18 C          -0.0607   -4.5741   -0.0257 C.3     1  LIG11      -0.0064
     19 C          -0.7504   -5.8203    0.5463 C.ar    1  LIG11      -0.0455
     20 C          -0.3125   -7.1066    0.2089 C.ar    1  LIG11      -0.0585
     21 C          -0.9948   -8.2302    0.6850 C.ar    1  LIG11      -0.0615
     22 C          -2.1054   -8.0743    1.5190 C.ar    1  LIG11      -0.0617
     23 C          -2.5315   -6.7927    1.8779 C.ar    1  LIG11      -0.0615
     24 C          -1.8516   -5.6703    1.3967 C.ar    1  LIG11      -0.0585
     25 C           4.0126   -1.9173   -0.0320 C.3     1  LIG11      -0.0064
     26 C           5.4690   -2.1266   -0.4773 C.ar    1  LIG11      -0.0455
     27 C           6.1517   -3.2972   -0.1252 C.ar    1  LIG11      -0.0585
     28 C           7.4827   -3.4859   -0.5077 C.ar    1  LIG11      -0.0615
     29 C           8.1459   -2.4996   -1.2423 C.ar    1  LIG11      -0.0617
     30 C           7.4725   -1.3271   -1.5949 C.ar    1  LIG11      -0.0615
     31 C           6.1377   -1.1454   -1.2195 C.ar    1  LIG11      -0.0585
     32 C           3.1545   -4.1183   -3.6293 C.ar    1  LIG11      -0.0293
     33 C           3.9522   -3.6461   -4.6731 C.ar    1  LIG11      -0.0449
     34 C           3.3948   -3.3699   -5.9264 C.ar    1  LIG11       0.0374
     35 C           2.0046   -3.3552   -6.0789 C.ar    1  LIG11      -0.0496
     36 C           1.1908   -3.7699   -5.0223 C.ar    1  LIG11      -0.0607
     37 C           1.7712   -4.1882   -3.8219 C.ar    1  LIG11      -0.0570
     38 C           4.3059   -3.1222   -7.1076 C.2     1  LIG11       0.2493
     39 C           7.7728   -3.8904  -10.6516 C.ar    1  LIG11      -0.0432
     40 C           8.4276   -3.9159   -9.4179 C.ar    1  LIG11      -0.0541
     41 C           7.6905   -3.8815   -8.2289 C.ar    1  LIG11      -0.0103
     42 N           2.1981   -4.6477    1.0433 N.am    1  LIG11      -0.2752
     43 N           3.1518   -4.0034   -1.1190 N.am    1  LIG11      -0.2752
     44 N           0.5084   -5.7496    7.0862 N.am    1  LIG11      -0.2661
     45 C          -0.2995   -6.1908    8.1701 C.ar    1  LIG11       0.1280
     46 N           5.4526   -3.8341   -7.1954 N.am    1  LIG11      -0.2661
     47 N          -0.5691   -5.3051    9.1516 N.ar    1  LIG11      -0.2399
     48 O           3.6732   -5.8474   -0.0597 O.2     1  LIG11      -0.2524
     49 O          -0.2359   -1.7873    0.9727 O.3     1  LIG11      -0.3873
     50 O           1.4741   -0.6444   -1.0145 O.3     1  LIG11      -0.3873
     51 O           0.5677   -3.5433    7.6461 O.2     1  LIG11      -0.2698
     52 O           3.9566   -2.3008   -7.9401 O.2     1  LIG11      -0.2698
     53 C          -1.2817   -5.6368   10.2456 C.ar    1  LIG11       0.0297
     54 C          -1.7820   -6.9324   10.3826 C.ar    1  LIG11      -0.0432
     55 C          -1.5385   -7.8637    9.3717 C.ar    1  LIG11      -0.0541
     56 C          -0.7983   -7.5043    8.2387 C.ar    1  LIG11      -0.0103
     57 H           3.3886   -6.0636    2.1959 H       1  LIG11       0.0514
     58 H           1.6351   -6.2146    2.3069 H       1  LIG11       0.0514
     59 H           0.4441   -3.9362    1.9357 H       1  LIG11       0.0531
     60 H           1.7533   -1.9606    1.4513 H       1  LIG11       0.0638
     61 H           0.8797   -2.5548   -1.4888 H       1  LIG11       0.0638
     62 H           3.2243   -2.1010   -1.9817 H       1  LIG11       0.0531
     63 H           3.7560   -5.6665   -2.3688 H       1  LIG11       0.0514
     64 H           4.8670   -4.2882   -2.2809 H       1  LIG11       0.0514
     65 H           0.7391   -5.3552    4.3485 H       1  LIG11       0.0628
     66 H           2.9763   -2.6767    6.8479 H       1  LIG11       0.0625
     67 H           4.6398   -2.3825    5.0270 H       1  LIG11       0.0618
     68 H           4.4349   -3.6943    2.9340 H       1  LIG11       0.0621
     69 H           5.8448   -3.8254  -11.6270 H       1  LIG11       0.0830
     70 H           8.3395   -3.9397  -11.5755 H       1  LIG11       0.0633
     71 H           0.4693   -4.8747   -0.9319 H       1  LIG11       0.0332
     72 H          -0.8642   -3.8809   -0.3220 H       1  LIG11       0.0332
     73 H           0.5553   -7.2418   -0.4294 H       1  LIG11       0.0620
     74 H          -0.6632   -9.2256    0.4051 H       1  LIG11       0.0618
     75 H          -2.6367   -8.9467    1.8870 H       1  LIG11       0.0618
     76 H          -3.3921   -6.6686    2.5282 H       1  LIG11       0.0618
     77 H          -2.1883   -4.6782    1.6816 H       1  LIG11       0.0620
     78 H           3.9291   -2.3567    0.9686 H       1  LIG11       0.0332
     79 H           3.8226   -0.8359    0.0626 H       1  LIG11       0.0332
     80 H           5.6526   -4.0693    0.4506 H       1  LIG11       0.0620
     81 H           8.0021   -4.3989   -0.2325 H       1  LIG11       0.0618
     82 H           9.1812   -2.6437   -1.5368 H       1  LIG11       0.0618
     83 H           7.9885   -0.5562   -2.1596 H       1  LIG11       0.0618
     84 H           5.6262   -0.2317   -1.5051 H       1  LIG11       0.0620
     85 H           5.0137   -3.4990   -4.5087 H       1  LIG11       0.0628
     86 H           1.5585   -3.0390   -7.0169 H       1  LIG11       0.0625
     87 H           0.1103   -3.7777   -5.1352 H       1  LIG11       0.0618
     88 H           1.1356   -4.5763   -3.0437 H       1  LIG11       0.0621
     89 H           9.5114   -3.9652   -9.3881 H       1  LIG11       0.0622
     90 C           8.4651   -3.9541   -6.9003 C.3     1  LIG11      -0.0365
     91 H           0.8667   -6.4067    6.4392 H       1  LIG11       0.1566
     92 H           5.6583   -4.5053   -6.4939 H       1  LIG11       0.1566
     93 H          -1.4620   -4.8921   11.0135 H       1  LIG11       0.0830
     94 H          -0.2212   -0.8392    1.0667 H       1  LIG11       0.2100
     95 H           0.5866   -0.2989   -1.0453 H       1  LIG11       0.2100
     96 H          -2.3535   -7.2118   11.2618 H       1  LIG11       0.0633
     97 H          -1.9337   -8.8690    9.4769 H       1  LIG11       0.0622
     98 C          -0.5960   -8.5807    7.1520 C.3     1  LIG11      -0.0365
     99 H           7.8557   -4.2320   -6.0316 H       1  LIG11       0.0279
    100 H           8.9204   -2.9727   -6.7019 H       1  LIG11       0.0279
    101 H           9.2691   -4.7013   -6.9885 H       1  LIG11       0.0279
    102 H           0.3777   -8.5440    6.6483 H       1  LIG11       0.0279
    103 H          -1.3945   -8.4745    6.4022 H       1  LIG11       0.0279
    104 H          -0.6667   -9.5879    7.5893 H       1  LIG11       0.0279
@<TRIPOS>BOND
     1    69    17    1
     2    70    39    1
     3    17    39   ar
     4    17    16   ar
     5    39    40   ar
     6    16    15   ar
     7    40    89    1
     8    40    41   ar
     9    15    41   ar
    10    15    46    1
    11    41    90    1
    12    52    38    2
    13    46    38   am
    14    46    92    1
    15    38    34    1
    16    86    35    1
    17   101    90    1
    18    90   100    1
    19    90    99    1
    20    35    34   ar
    21    35    36   ar
    22    34    33   ar
    23    87    36    1
    24    36    37   ar
    25    33    85    1
    26    33    32   ar
    27    37    32   ar
    28    37    88    1
    29    32     7    1
    30    63     7    1
    31     7    64    1
    32     7    43    1
    33    83    30    1
    34    62     6    1
    35    30    29   ar
    36    30    31   ar
    37    82    29    1
    38    84    31    1
    39    61     5    1
    40    29    28   ar
    41    31    26   ar
    42    43     6    1
    43    43     1   am
    44    95    50    1
    45    50     5    1
    46     6     5    1
    47     6    25    1
    48    71    18    1
    49     5     4    1
    50    28    81    1
    51    28    27   ar
    52    26    27   ar
    53    26    25    1
    54    73    20    1
    55    72    18    1
    56    27    80    1
    57    48     1    2
    58     1    42   am
    59    25    79    1
    60    25    78    1
    61    18    19    1
    62    18     3    1
    63    20    19   ar
    64    20    21   ar
    65    74    21    1
    66    19    24   ar
    67    21    22   ar
    68     4     3    1
    69     4    49    1
    70     4    60    1
    71     3    42    1
    72     3    59    1
    73    49    94    1
    74    42     2    1
    75    24    77    1
    76    24    23   ar
    77    22    23   ar
    78    22    75    1
    79    23    76    1
    80    57     2    1
    81     2    58    1
    82     2     8    1
    83    68    13    1
    84     8    13   ar
    85     8     9   ar
    86    13    12   ar
    87    65     9    1
    88     9    10   ar
    89    12    67    1
    90    12    11   ar
    91    10    11   ar
    92    10    14    1
    93    11    66    1
    94   103    98    1
    95    91    44    1
    96   102    98    1
    97    14    44   am
    98    14    51    2
    99    44    45    1
   100    98   104    1
   101    98    56    1
   102    45    56   ar
   103    45    47   ar
   104    56    55   ar
   105    47    53   ar
   106    55    97    1
   107    55    54   ar
   108    53    54   ar
   109    53    93    1
   110    54    96    1
