@<TRIPOS>MOLECULE
Mol_66
 84 88 0 0 0
SMALL
GASTEIGER
Energy = 0

@<TRIPOS>ATOM
      1 C           2.9048   -4.8701   -0.0455 C.2     1  LIG11       0.3060
      2 C           2.3100   -5.5122    2.2299 C.3     1  LIG11       0.0416
      3 C           0.8390   -3.9108    0.9120 C.3     1  LIG11       0.0601
      4 C           0.9745   -2.3849    0.6930 C.3     1  LIG11       0.1016
      5 C           1.5056   -2.0440   -0.7261 C.3     1  LIG11       0.1016
      6 C           2.9393   -2.5801   -0.9661 C.3     1  LIG11       0.0601
      7 C           3.7310   -4.5832   -2.3148 C.3     1  LIG11       0.0416
      8 C           2.5720   -4.6849    3.5013 C.ar    1  LIG11      -0.0293
      9 C           1.7258   -4.7901    4.6102 C.ar    1  LIG11      -0.0449
     10 C           1.9953   -4.0638    5.7757 C.ar    1  LIG11       0.0382
     11 C           3.0546   -3.1545    5.8140 C.ar    1  LIG11      -0.0496
     12 C           3.8952   -3.0302    4.7075 C.ar    1  LIG11      -0.0607
     13 C           3.6815   -3.8337    3.5833 C.ar    1  LIG11      -0.0570
     14 C           1.1598   -4.2401    7.0204 C.2     1  LIG11       0.2574
     15 N           5.6629   -2.3772   -8.4095 N.3     1  LIG11      -0.2541
     16 N           0.0038   -5.5362    8.6124 N.3     1  LIG11      -0.2541
     17 H           3.1854   -6.1770    2.1751 H       1  LIG11       0.0514
     18 C          -0.1348   -4.5706   -0.1090 C.3     1  LIG11      -0.0064
     19 C          -0.8151   -5.8416    0.4218 C.ar    1  LIG11      -0.0455
     20 C          -0.3524   -7.1176    0.0772 C.ar    1  LIG11      -0.0585
     21 C          -1.0051   -8.2576    0.5574 C.ar    1  LIG11      -0.0615
     22 C          -2.1158   -8.1295    1.3961 C.ar    1  LIG11      -0.0617
     23 C          -2.5819   -6.8585    1.7421 C.ar    1  LIG11      -0.0615
     24 C          -1.9345   -5.7206    1.2529 C.ar    1  LIG11      -0.0585
     25 C           3.9712   -2.0210    0.0562 C.3     1  LIG11      -0.0064
     26 C           5.4354   -2.2254   -0.3714 C.ar    1  LIG11      -0.0455
     27 C           6.1261   -1.1979   -1.0253 C.ar    1  LIG11      -0.0585
     28 C           7.4613   -1.3658   -1.4047 C.ar    1  LIG11      -0.0615
     29 C           8.1180   -2.5703   -1.1400 C.ar    1  LIG11      -0.0617
     30 C           7.4377   -3.5997   -0.4844 C.ar    1  LIG11      -0.0615
     31 C           6.1045   -3.4256   -0.0999 C.ar    1  LIG11      -0.0585
     32 C           3.0110   -4.2054   -3.6200 C.ar    1  LIG11      -0.0293
     33 C           3.6914   -3.5368   -4.6423 C.ar    1  LIG11      -0.0449
     34 C           3.0405   -3.2368   -5.8445 C.ar    1  LIG11       0.0382
     35 C           1.6741   -3.4922   -5.9879 C.ar    1  LIG11      -0.0496
     36 C           0.9815   -4.1423   -4.9665 C.ar    1  LIG11      -0.0607
     37 C           1.6677   -4.5450   -3.8182 C.ar    1  LIG11      -0.0570
     38 C           3.7841   -2.6382   -7.0145 C.2     1  LIG11       0.2574
     39 H           1.4345   -6.1674    2.3584 H       1  LIG11       0.0514
     40 H           0.3098   -3.9710    1.8793 H       1  LIG11       0.0531
     41 H           1.6433   -1.9940    1.4771 H       1  LIG11       0.0638
     42 N           2.0844   -4.6829    1.0310 N.am    1  LIG11      -0.2752
     43 N           3.0810   -4.0345   -1.1111 N.am    1  LIG11      -0.2752
     44 N           0.7800   -5.4648    7.4345 N.am    1  LIG11      -0.2496
     45 H           0.8609   -2.4842   -1.5053 H       1  LIG11       0.0638
     46 N           5.0609   -2.9783   -7.2821 N.am    1  LIG11      -0.2496
     47 H           3.2324   -2.1118   -1.9225 H       1  LIG11       0.0531
     48 O           3.5567   -5.9007   -0.0611 O.2     1  LIG11      -0.2524
     49 O          -0.3318   -1.8115    0.9153 O.3     1  LIG11      -0.3873
     50 O           1.5381   -0.6162   -0.9320 O.3     1  LIG11      -0.3873
     51 O           0.8548   -3.2404    7.6505 O.2     1  LIG11      -0.2689
     52 O           3.1866   -1.8469   -7.7263 O.2     1  LIG11      -0.2689
     53 H           3.7637   -5.6833   -2.3494 H       1  LIG11       0.0514
     54 H           4.7734   -4.2313   -2.3305 H       1  LIG11       0.0514
     55 H           0.8559   -5.4371    4.5747 H       1  LIG11       0.0628
     56 H           3.2278   -2.5573    6.7051 H       1  LIG11       0.0625
     57 H           4.7150   -2.3180    4.7309 H       1  LIG11       0.0618
     58 H           4.4004   -3.8028    2.7768 H       1  LIG11       0.0621
     59 H           6.1831   -1.4946   -8.3033 H       1  LIG11       0.1405
     60 H           5.4415   -2.7300   -9.3526 H       1  LIG11       0.1405
     61 H          -1.0116   -5.6966    8.5514 H       1  LIG11       0.1405
     62 H           0.4260   -5.2698    9.5152 H       1  LIG11       0.1405
     63 H           0.4206   -4.8252   -1.0119 H       1  LIG11       0.0332
     64 H          -0.9388   -3.8779   -0.4044 H       1  LIG11       0.0332
     65 H           0.5133   -7.2321   -0.5680 H       1  LIG11       0.0620
     66 H          -0.6506   -9.2456    0.2787 H       1  LIG11       0.0618
     67 H          -2.6165   -9.0142    1.7780 H       1  LIG11       0.0618
     68 H          -3.4474   -6.7543    2.3894 H       1  LIG11       0.0618
     69 H          -2.3098   -4.7375    1.5193 H       1  LIG11       0.0620
     70 H           3.8363   -2.5254    1.0139 H       1  LIG11       0.0332
     71 H           3.7991   -0.9473    0.2316 H       1  LIG11       0.0332
     72 H           5.6296   -0.2570   -1.2395 H       1  LIG11       0.0620
     73 H           7.9899   -0.5595   -1.9044 H       1  LIG11       0.0618
     74 H           9.1526   -2.7049   -1.4420 H       1  LIG11       0.0618
     75 H           7.9474   -4.5352   -0.2731 H       1  LIG11       0.0618
     76 H           5.5945   -4.2334    0.4134 H       1  LIG11       0.0620
     77 H           4.7277   -3.2483   -4.5055 H       1  LIG11       0.0628
     78 H           1.1544   -3.1966   -6.8948 H       1  LIG11       0.0625
     79 H          -0.0812   -4.3402   -5.0723 H       1  LIG11       0.0618
     80 H           1.1463   -5.1404   -3.0863 H       1  LIG11       0.0621
     81 H           1.0661   -6.2941    6.9483 H       1  LIG11       0.1690
     82 H           5.5559   -3.6573   -6.7357 H       1  LIG11       0.1690
     83 H          -0.3308   -0.8633    1.0011 H       1  LIG11       0.2100
     84 H           0.6759   -0.2154   -0.9849 H       1  LIG11       0.2100
@<TRIPOS>BOND
     1    60    15    1
     2    15    59    1
     3    15    46    1
     4    52    38    2
     5    46    38   am
     6    46    82    1
     7    38    34    1
     8    78    35    1
     9    35    34   ar
    10    35    36   ar
    11    34    33   ar
    12    79    36    1
    13    36    37   ar
    14    33    77    1
    15    33    32   ar
    16    37    32   ar
    17    37    80    1
    18    32     7    1
    19    53     7    1
    20    54     7    1
    21     7    43    1
    22    47     6    1
    23    73    28    1
    24    45     5    1
    25    74    29    1
    26    28    29   ar
    27    28    27   ar
    28    72    27    1
    29    29    30   ar
    30    43     6    1
    31    43     1   am
    32    27    26   ar
    33    63    18    1
    34    84    50    1
    35     6     5    1
    36     6    25    1
    37    50     5    1
    38     5     4    1
    39    65    20    1
    40    30    75    1
    41    30    31   ar
    42    64    18    1
    43    26    31   ar
    44    26    25    1
    45    18    19    1
    46    18     3    1
    47    31    76    1
    48    48     1    2
    49     1    42   am
    50    25    71    1
    51    25    70    1
    52    20    19   ar
    53    20    21   ar
    54    66    21    1
    55    19    24   ar
    56    21    22   ar
    57     4     3    1
    58     4    49    1
    59     4    41    1
    60     3    42    1
    61     3    40    1
    62    49    83    1
    63    42     2    1
    64    24    69    1
    65    24    23   ar
    66    22    23   ar
    67    22    67    1
    68    23    68    1
    69    17     2    1
    70     2    39    1
    71     2     8    1
    72    58    13    1
    73     8    13   ar
    74     8     9   ar
    75    13    12   ar
    76    55     9    1
    77     9    10   ar
    78    12    57    1
    79    12    11   ar
    80    10    11   ar
    81    10    14    1
    82    11    56    1
    83    81    44    1
    84    14    44   am
    85    14    51    2
    86    44    16    1
    87    61    16    1
    88    16    62    1
