@<TRIPOS>MOLECULE
Mol_74
 92 96 0 0 0
SMALL
GASTEIGER
Energy = 0

@<TRIPOS>ATOM
      1 C           3.1314   -4.9544   -0.0100 C.2     1  LIG11       0.3060
      2 C           3.8078   -4.7153   -2.3330 C.3     1  LIG11       0.0416
      3 C           3.0808   -2.6882   -0.9809 C.3     1  LIG11       0.0601
      4 C           1.6516   -2.1668   -0.6942 C.3     1  LIG11       0.1016
      5 C           1.1824   -2.4963    0.7485 C.3     1  LIG11       0.1016
      6 C           1.0891   -4.0199    1.0061 C.3     1  LIG11       0.0601
      7 C           2.6504   -5.5579    2.2932 C.3     1  LIG11       0.0416
      8 C           3.0172   -4.3945   -3.6151 C.ar    1  LIG11      -0.0293
      9 C           3.6932   -4.0601   -4.7917 C.ar    1  LIG11      -0.0449
     10 C           2.9847   -3.7897   -5.9680 C.ar    1  LIG11       0.0370
     11 C           1.5890   -3.8431   -5.9862 C.ar    1  LIG11      -0.0496
     12 C           0.9013   -4.1613   -4.8157 C.ar    1  LIG11      -0.0607
     13 C           1.6199   -4.4518   -3.6544 C.ar    1  LIG11      -0.0570
     14 C           3.7286   -3.4393   -7.2342 C.2     1  LIG11       0.2443
     15 C          -0.2568   -6.0528    8.3673 C.3     1  LIG11       0.1071
     16 C          -0.2923   -7.5695    8.6727 C.3     1  LIG11       0.4050
     17 F           0.9769   -8.0198    8.8699 F       1  LIG11      -0.1690
     18 C           4.1422   -2.0800   -0.0169 C.3     1  LIG11      -0.0064
     19 C           5.5871   -2.2854   -0.4993 C.ar    1  LIG11      -0.0455
     20 C           6.2655   -1.2670   -1.1803 C.ar    1  LIG11      -0.0585
     21 C           7.5938   -1.4443   -1.5799 C.ar    1  LIG11      -0.0615
     22 C           8.2489   -2.6508   -1.3194 C.ar    1  LIG11      -0.0617
     23 C           7.5722   -3.6781   -0.6571 C.ar    1  LIG11      -0.0615
     24 C           6.2507   -3.4910   -0.2432 C.ar    1  LIG11      -0.0585
     25 C           0.1089   -4.7556    0.0438 C.3     1  LIG11      -0.0064
     26 C          -0.7270   -5.8492    0.7188 C.ar    1  LIG11      -0.0455
     27 C          -1.8976   -5.4933    1.3966 C.ar    1  LIG11      -0.0585
     28 C          -2.6791   -6.4732    2.0139 C.ar    1  LIG11      -0.0615
     29 C          -2.2934   -7.8151    1.9526 C.ar    1  LIG11      -0.0617
     30 C          -1.1314   -8.1767    1.2655 C.ar    1  LIG11      -0.0615
     31 C          -0.3488   -7.1957    0.6505 C.ar    1  LIG11      -0.0585
     32 C           2.7116   -4.7126    3.5753 C.ar    1  LIG11      -0.0293
     33 C           1.7617   -4.8876    4.5860 C.ar    1  LIG11      -0.0449
     34 C           1.8610   -4.1784    5.7888 C.ar    1  LIG11       0.0370
     35 C           2.8429   -3.1935    5.9331 C.ar    1  LIG11      -0.0496
     36 C           3.7823   -2.9938    4.9189 C.ar    1  LIG11      -0.0607
     37 C           3.7332   -3.7731    3.7588 C.ar    1  LIG11      -0.0570
     38 C           0.9300   -4.4805    6.9414 C.2     1  LIG11       0.2443
     39 F          -1.0343   -7.8085    9.7874 F       1  LIG11      -0.1690
     40 F          -0.8365   -8.2310    7.6154 F       1  LIG11      -0.1690
     41 C           5.5732   -2.3366   -8.3756 C.3     1  LIG11       0.1071
     42 N           3.2318   -4.1434   -1.1031 N.am    1  LIG11      -0.2752
     43 N           2.3602   -4.7512    1.0974 N.am    1  LIG11      -0.2752
     44 N           4.7911   -2.6139   -7.1731 N.am    1  LIG11      -0.3028
     45 C           6.2573   -3.6022   -8.9544 C.3     1  LIG11       0.4050
     46 N           0.5714   -5.7552    7.2012 N.am    1  LIG11      -0.3028
     47 F           5.4072   -4.3313   -9.7257 F       1  LIG11      -0.1690
     48 O           3.7982   -5.9757   -0.0277 O.2     1  LIG11      -0.2524
     49 O           1.6549   -0.7421   -0.9227 O.3     1  LIG11      -0.3873
     50 O          -0.1196   -1.9342    1.0156 O.3     1  LIG11      -0.3873
     51 O           3.3357   -3.9147   -8.2854 O.2     1  LIG11      -0.2702
     52 O           0.5362   -3.5589    7.6376 O.2     1  LIG11      -0.2702
     53 F           7.3122   -3.2233   -9.7266 F       1  LIG11      -0.1690
     54 F           6.7160   -4.3781   -7.9340 F       1  LIG11      -0.1690
     55 H           3.8551   -5.8156   -2.3346 H       1  LIG11       0.0514
     56 H           4.8413   -4.3468   -2.4198 H       1  LIG11       0.0514
     57 H           3.3252   -2.2429   -1.9620 H       1  LIG11       0.0531
     58 H           0.9837   -2.6242   -1.4412 H       1  LIG11       0.0638
     59 H           1.8790   -2.0835    1.4966 H       1  LIG11       0.0638
     60 H           0.5952   -4.0644    1.9921 H       1  LIG11       0.0531
     61 H           3.6242   -6.0717    2.2702 H       1  LIG11       0.0514
     62 H           1.8799   -6.3405    2.3691 H       1  LIG11       0.0514
     63 H           4.7772   -4.0271   -4.7972 H       1  LIG11       0.0628
     64 H           1.0433   -3.6344   -6.9011 H       1  LIG11       0.0625
     65 H          -0.1848   -4.1859   -4.8092 H       1  LIG11       0.0618
     66 H           1.0655   -4.7356   -2.7838 H       1  LIG11       0.0621
     67 H          -1.2852   -5.6967    8.2007 H       1  LIG11       0.0551
     68 H           0.1528   -5.5487    9.2573 H       1  LIG11       0.0551
     69 H           4.0698   -2.5451    0.9716 H       1  LIG11       0.0332
     70 H           3.9628   -1.0009    0.1146 H       1  LIG11       0.0332
     71 H           5.7673   -0.3278   -1.3991 H       1  LIG11       0.0620
     72 H           8.1193   -0.6438   -2.0920 H       1  LIG11       0.0618
     73 H           9.2803   -2.7900   -1.6291 H       1  LIG11       0.0618
     74 H           8.0733   -4.6214   -0.4615 H       1  LIG11       0.0618
     75 H           5.7455   -4.2924    0.2833 H       1  LIG11       0.0620
     76 H           0.6884   -5.2592   -0.7295 H       1  LIG11       0.0332
     77 H          -0.5982   -4.0663   -0.4435 H       1  LIG11       0.0332
     78 H          -2.2053   -4.4529    1.4418 H       1  LIG11       0.0620
     79 H          -3.5858   -6.1908    2.5398 H       1  LIG11       0.0618
     80 H          -2.8965   -8.5760    2.4380 H       1  LIG11       0.0618
     81 H          -0.8366   -9.2202    1.2083 H       1  LIG11       0.0618
     82 H           0.5505   -7.4905    0.1177 H       1  LIG11       0.0620
     83 H           0.9410   -5.5806    4.4387 H       1  LIG11       0.0628
     84 H           2.8832   -2.5944    6.8382 H       1  LIG11       0.0625
     85 H           4.5542   -2.2387    5.0376 H       1  LIG11       0.0618
     86 H           4.5012   -3.6510    3.0046 H       1  LIG11       0.0621
     87 H           6.3737   -1.6221   -8.1227 H       1  LIG11       0.0551
     88 H           4.9405   -1.8762   -9.1501 H       1  LIG11       0.0551
     89 H           5.0457   -2.1752   -6.3090 H       1  LIG11       0.1493
     90 H           0.8981   -6.5156    6.6380 H       1  LIG11       0.1493
     91 H           0.7856   -0.3537   -0.9399 H       1  LIG11       0.2100
     92 H          -0.1181   -0.9855    1.1020 H       1  LIG11       0.2100
@<TRIPOS>BOND
     1    53    45    1
     2    47    45    1
     3    88    41    1
     4    45    41    1
     5    45    54    1
     6    41    87    1
     7    41    44    1
     8    51    14    2
     9    14    44   am
    10    14    10    1
    11    44    89    1
    12    64    11    1
    13    11    10   ar
    14    11    12   ar
    15    10     9   ar
    16    12    65    1
    17    12    13   ar
    18    63     9    1
    19     9     8   ar
    20    13     8   ar
    21    13    66    1
    22     8     2    1
    23    56     2    1
    24    55     2    1
    25     2    42    1
    26    72    21    1
    27    57     3    1
    28    73    22    1
    29    21    22   ar
    30    21    20   ar
    31    58     4    1
    32    71    20    1
    33    22    23   ar
    34    20    19   ar
    35    42     3    1
    36    42     1   am
    37     3     4    1
    38     3    18    1
    39    91    49    1
    40    49     4    1
    41    76    25    1
    42     4     5    1
    43    23    74    1
    44    23    24   ar
    45    19    24   ar
    46    19    18    1
    47    77    25    1
    48    24    75    1
    49    48     1    2
    50    18    70    1
    51    18    69    1
    52     1    43   am
    53    25    26    1
    54    25     6    1
    55    82    31    1
    56    31    26   ar
    57    31    30   ar
    58    26    27   ar
    59     5     6    1
    60     5    50    1
    61     5    59    1
    62     6    43    1
    63     6    60    1
    64    50    92    1
    65    43     7    1
    66    81    30    1
    67    30    29   ar
    68    27    78    1
    69    27    28   ar
    70    29    28   ar
    71    29    80    1
    72    28    79    1
    73    61     7    1
    74     7    62    1
    75     7    32    1
    76    86    37    1
    77    32    37   ar
    78    32    33   ar
    79    37    36   ar
    80    83    33    1
    81    33    34   ar
    82    36    85    1
    83    36    35   ar
    84    34    35   ar
    85    34    38    1
    86    35    84    1
    87    90    46    1
    88    38    46   am
    89    38    52    2
    90    46    15    1
    91    40    16    1
    92    67    15    1
    93    15    16    1
    94    15    68    1
    95    16    17    1
    96    16    39    1
