@<TRIPOS>MOLECULE
Mol_01
 52 54 0 0 0
SMALL
GASTEIGER
Energy = 0

@<TRIPOS>ATOM
      1 C           2.9013   -4.4997   -0.0739 C.2     1  LIG11       0.3049
      2 C           2.4409   -4.9060    2.2737 C.3     1  LIG11       0.0050
      3 C           0.8712   -3.4873    0.8751 C.3     1  LIG11       0.0595
      4 C           1.0017   -1.9672    0.6268 C.3     1  LIG11       0.1016
      5 C           1.5285   -1.6679   -0.8001 C.3     1  LIG11       0.1016
      6 C           2.9548   -2.2336   -1.0221 C.3     1  LIG11       0.0595
      7 C           3.5336   -4.2809   -2.4225 C.3     1  LIG11       0.0050
      8 H           1.7697   -5.7694    2.3966 H       1  LIG11       0.0429
      9 H           2.2880   -4.2157    3.1178 H       1  LIG11       0.0429
     10 H           3.4837   -5.2555    2.3348 H       1  LIG11       0.0429
     11 H           0.3486   -3.5298    1.8467 H       1  LIG11       0.0530
     12 H           1.6881   -1.5646    1.3896 H       1  LIG11       0.0638
     13 H           0.8734   -2.1243   -1.5606 H       1  LIG11       0.0638
     14 H           3.2622   -1.7760   -1.9783 H       1  LIG11       0.0530
     15 H           3.2252   -5.3336   -2.5231 H       1  LIG11       0.0429
     16 H           4.6331   -4.2332   -2.4464 H       1  LIG11       0.0429
     17 H           0.3748   -4.3569   -1.0851 H       1  LIG11       0.0332
     18 C          -0.1019   -4.2016   -0.1086 C.3     1  LIG11      -0.0064
     19 C          -0.5701   -5.5615    0.4346 C.ar    1  LIG11      -0.0455
     20 C          -0.0257   -6.7556   -0.0520 C.ar    1  LIG11      -0.0585
     21 C          -0.4840   -7.9883    0.4244 C.ar    1  LIG11      -0.0615
     22 C          -1.4760   -8.0353    1.4069 C.ar    1  LIG11      -0.0617
     23 C          -2.0140   -6.8463    1.9074 C.ar    1  LIG11      -0.0615
     24 C          -1.5636   -5.6160    1.4203 C.ar    1  LIG11      -0.0585
     25 C           4.0163   -1.6930   -0.0181 C.3     1  LIG11      -0.0064
     26 C           5.4501   -2.0283   -0.4637 C.ar    1  LIG11      -0.0455
     27 C           6.1560   -1.1606   -1.3067 C.ar    1  LIG11      -0.0585
     28 C           7.4674   -1.4555   -1.6916 C.ar    1  LIG11      -0.0615
     29 C           8.0844   -2.6252   -1.2389 C.ar    1  LIG11      -0.0617
     30 C           7.3851   -3.4974   -0.4013 C.ar    1  LIG11      -0.0615
     31 C           6.0732   -3.2005   -0.0194 C.ar    1  LIG11      -0.0585
     32 H           3.1340   -3.7403   -3.2938 H       1  LIG11       0.0429
     33 H          -0.9991   -3.5836   -0.2723 H       1  LIG11       0.0332
     34 H           0.7556   -6.7349   -0.8054 H       1  LIG11       0.0620
     35 H          -0.0687   -8.9107    0.0299 H       1  LIG11       0.0618
     36 H          -1.8283   -8.9921    1.7809 H       1  LIG11       0.0618
     37 H          -2.7828   -6.8800    2.6736 H       1  LIG11       0.0618
     38 H          -1.9937   -4.6995    1.8117 H       1  LIG11       0.0620
     39 H           3.8770   -2.1210    0.9842 H       1  LIG11       0.0332
     40 H           3.9211   -0.5984    0.0707 H       1  LIG11       0.0332
     41 H           5.6893   -0.2489   -1.6655 H       1  LIG11       0.0620
     42 N           2.1337   -4.2199    1.0144 N.am    1  LIG11      -0.2826
     43 N           3.0456   -3.6931   -1.1634 N.am    1  LIG11      -0.2826
     44 H           8.0100   -0.7759   -2.3420 H       1  LIG11       0.0618
     45 H           9.1031   -2.8555   -1.5366 H       1  LIG11       0.0618
     46 H           7.8611   -4.4061   -0.0454 H       1  LIG11       0.0618
     47 H           5.5439   -3.8897    0.6300 H       1  LIG11       0.0620
     48 O           3.5092   -5.5573   -0.0565 O.2     1  LIG11      -0.2524
     49 O          -0.2942   -1.3765    0.8603 O.3     1  LIG11      -0.3873
     50 O           1.5533   -0.2481   -1.0490 O.3     1  LIG11      -0.3873
     51 H          -0.2741   -0.4293    0.9588 H       1  LIG11       0.2100
     52 H           0.6844    0.1407   -1.0880 H       1  LIG11       0.2100
@<TRIPOS>BOND
     1    32     7    1
     2    15     7    1
     3    16     7    1
     4     7    43    1
     5    44    28    1
     6    14     6    1
     7    28    27   ar
     8    28    29   ar
     9    41    27    1
    10    13     5    1
    11    45    29    1
    12    27    26   ar
    13    29    30   ar
    14    43     6    1
    15    43     1   am
    16    52    50    1
    17    17    18    1
    18    50     5    1
    19     6     5    1
    20     6    25    1
    21    34    20    1
    22     5     4    1
    23    26    31   ar
    24    26    25    1
    25    30    46    1
    26    30    31   ar
    27    33    18    1
    28    18    19    1
    29    18     3    1
    30     1    48    2
    31     1    42   am
    32    20    21   ar
    33    20    19   ar
    34    31    47    1
    35    25    40    1
    36    25    39    1
    37    35    21    1
    38    21    22   ar
    39    19    24   ar
    40     4    49    1
    41     4     3    1
    42     4    12    1
    43    49    51    1
    44     3    42    1
    45     3    11    1
    46    42     2    1
    47    22    36    1
    48    22    23   ar
    49    24    38    1
    50    24    23   ar
    51    23    37    1
    52     2    10    1
    53     2     8    1
    54     2     9    1
