@<TRIPOS>MOLECULE
Mol_107
 90 94 0 0 0
SMALL
GASTEIGER
Energy = 0

@<TRIPOS>ATOM
      1 C           2.9758   -4.8832   -0.1990 C.2     1  LIG11       0.3060
      2 C           2.4604   -5.4988    2.0904 C.3     1  LIG11       0.0416
      3 C           1.0136   -3.8157    0.8521 C.3     1  LIG11       0.0601
      4 C           1.1982   -2.3037    0.5860 C.3     1  LIG11       0.1016
      5 C           1.6848   -2.0224   -0.8623 C.3     1  LIG11       0.1016
      6 C           3.1015   -2.5932   -1.1210 C.3     1  LIG11       0.0601
      7 C           3.7406   -4.6321   -2.4959 C.3     1  LIG11       0.0416
      8 C           2.4706   -4.7281    3.4216 C.ar    1  LIG11      -0.0293
      9 C           1.5822   -5.0642    4.4473 C.ar    1  LIG11      -0.0449
     10 C           1.6326   -4.3971    5.6773 C.ar    1  LIG11       0.0370
     11 C           2.5033   -3.3178    5.8533 C.ar    1  LIG11      -0.0496
     12 C           3.3776   -2.9582    4.8270 C.ar    1  LIG11      -0.0607
     13 C           3.3860   -3.6912    3.6373 C.ar    1  LIG11      -0.0570
     14 C           0.7646   -4.8322    6.8345 C.2     1  LIG11       0.2445
     15 C          -0.1845   -6.6243    8.2356 C.3     1  LIG11       0.0265
     16 C           0.2501   -5.8744    9.5316 C.3     1  LIG11      -0.0442
     17 C          -1.6964   -6.4088    7.9516 C.3     1  LIG11      -0.0442
     18 C          -0.0460   -4.4545   -0.0911 C.3     1  LIG11      -0.0064
     19 C          -0.6071   -5.7754    0.4524 C.ar    1  LIG11      -0.0455
     20 C          -1.6765   -5.7545    1.3547 C.ar    1  LIG11      -0.0585
     21 C          -2.2070   -6.9489    1.8500 C.ar    1  LIG11      -0.0615
     22 C          -1.6701   -8.1732    1.4433 C.ar    1  LIG11      -0.0617
     23 C          -0.6053   -8.2001    0.5384 C.ar    1  LIG11      -0.0615
     24 C          -0.0733   -7.0044    0.0466 C.ar    1  LIG11      -0.0585
     25 C           4.1640   -2.0507   -0.1210 C.3     1  LIG11      -0.0064
     26 C           5.6174   -2.2764   -0.5659 C.ar    1  LIG11      -0.0455
     27 C           6.2371   -3.5164   -0.3681 C.ar    1  LIG11      -0.0585
     28 C           7.5584   -3.7218   -0.7761 C.ar    1  LIG11      -0.0615
     29 C           8.2764   -2.6819   -1.3727 C.ar    1  LIG11      -0.0617
     30 C           7.6707   -1.4360   -1.5552 C.ar    1  LIG11      -0.0615
     31 C           6.3464   -1.2361   -1.1543 C.ar    1  LIG11      -0.0585
     32 C           2.9877   -4.2056   -3.7677 C.ar    1  LIG11      -0.0283
     33 C           1.6255   -4.4898   -3.9110 C.ar    1  LIG11      -0.0570
     34 C           0.9208   -4.0710   -5.0421 C.ar    1  LIG11      -0.0597
     35 C           1.6008   -3.4459   -6.0895 C.ar    1  LIG11      -0.0410
     36 C           2.9840   -3.2519   -6.0074 C.ar    1  LIG11       0.0248
     37 C           3.6511   -3.5541   -4.8139 C.ar    1  LIG11      -0.0364
     38 C           0.0884   -8.1479    8.4196 C.3     1  LIG11      -0.0442
     39 H           3.4386   -6.0050    2.0806 H       1  LIG11       0.0514
     40 N           3.6728   -2.7881   -7.0782 N.pl3   1  LIG11      -0.3580
     41 H           1.6891   -6.2839    2.0957 H       1  LIG11       0.0514
     42 N           2.2261   -4.6420    0.9159 N.am    1  LIG11      -0.2752
     43 N           3.1727   -4.0529   -1.2656 N.am    1  LIG11      -0.2752
     44 N           0.5898   -6.1501    7.0844 N.am    1  LIG11      -0.3066
     45 H           0.5346   -3.8360    1.8465 H       1  LIG11       0.0531
     46 H           1.9149   -1.9232    1.3317 H       1  LIG11       0.0638
     47 H           1.0148   -2.4768   -1.6112 H       1  LIG11       0.0638
     48 O           3.5343   -5.9671   -0.2421 O.2     1  LIG11      -0.2524
     49 O          -0.0701   -1.6696    0.8575 O.3     1  LIG11      -0.3873
     50 O           1.7147   -0.6040   -1.1175 O.3     1  LIG11      -0.3873
     51 O           0.2701   -3.9478    7.5140 O.2     1  LIG11      -0.2702
     52 H           3.3968   -2.1411   -2.0842 H       1  LIG11       0.0531
     53 H           3.7060   -5.7322   -2.5337 H       1  LIG11       0.0514
     54 H           4.8004   -4.3427   -2.5553 H       1  LIG11       0.0514
     55 H           0.8482   -5.8474    4.2930 H       1  LIG11       0.0628
     56 H           2.5085   -2.7684    6.7902 H       1  LIG11       0.0625
     57 H           4.0533   -2.1178    4.9590 H       1  LIG11       0.0618
     58 H           4.1233   -3.4545    2.8860 H       1  LIG11       0.0621
     59 H           0.0285   -6.4659   10.4320 H       1  LIG11       0.0250
     60 H          -0.2717   -4.9123    9.6406 H       1  LIG11       0.0250
     61 H           1.3340   -5.6827    9.5022 H       1  LIG11       0.0250
     62 H          -1.8936   -5.3639    7.6700 H       1  LIG11       0.0250
     63 H          -2.2907   -6.6473    8.8466 H       1  LIG11       0.0250
     64 H          -2.0278   -7.0540    7.1238 H       1  LIG11       0.0250
     65 H           0.4068   -4.6592   -1.0619 H       1  LIG11       0.0332
     66 H          -0.8926   -3.7708   -0.2622 H       1  LIG11       0.0332
     67 H          -2.1029   -4.8081    1.6724 H       1  LIG11       0.0620
     68 H          -3.0372   -6.9251    2.5495 H       1  LIG11       0.0618
     69 H          -2.0801   -9.1015    1.8293 H       1  LIG11       0.0618
     70 H          -0.1915   -9.1511    0.2167 H       1  LIG11       0.0618
     71 H           0.7564   -7.0383   -0.6532 H       1  LIG11       0.0620
     72 H           4.0599   -2.5617    0.8365 H       1  LIG11       0.0332
     73 H           4.0041   -0.9753    0.0583 H       1  LIG11       0.0332
     74 H           5.6970   -4.3288    0.1069 H       1  LIG11       0.0620
     75 H           8.0284   -4.6895   -0.6287 H       1  LIG11       0.0618
     76 H           9.3018   -2.8408   -1.6926 H       1  LIG11       0.0618
     77 H           8.2297   -0.6225   -2.0077 H       1  LIG11       0.0618
     78 H           5.8904   -0.2620   -1.2999 H       1  LIG11       0.0620
     79 H           1.1064   -5.0524   -3.1502 H       1  LIG11       0.0621
     80 H          -0.1500   -4.2395   -5.1125 H       1  LIG11       0.0618
     81 H           1.0500   -3.1232   -6.9671 H       1  LIG11       0.0636
     82 H           4.6962   -3.2858   -4.7052 H       1  LIG11       0.0639
     83 H           1.1489   -8.3139    8.6651 H       1  LIG11       0.0250
     84 H          -0.1445   -8.7020    7.4967 H       1  LIG11       0.0250
     85 H          -0.5298   -8.5636    9.2298 H       1  LIG11       0.0250
     86 H           3.1767   -2.3816   -7.8850 H       1  LIG11       0.1423
     87 H           4.6989   -2.8785   -7.1176 H       1  LIG11       0.1423
     88 H           1.0303   -6.8223    6.4898 H       1  LIG11       0.1495
     89 H          -0.0176   -0.7251    0.9688 H       1  LIG11       0.2100
     90 H           0.8478   -0.2092   -1.1316 H       1  LIG11       0.2100
@<TRIPOS>BOND
     1    86    40    1
     2    87    40    1
     3    40    36    1
     4    81    35    1
     5    35    36   ar
     6    35    34   ar
     7    36    37   ar
     8    80    34    1
     9    34    33   ar
    10    37    82    1
    11    37    32   ar
    12    33    32   ar
    13    33    79    1
    14    32     7    1
    15    54     7    1
    16    53     7    1
    17     7    43    1
    18    52     6    1
    19    77    30    1
    20    76    29    1
    21    47     5    1
    22    30    29   ar
    23    30    31   ar
    24    29    28   ar
    25    78    31    1
    26    43     6    1
    27    43     1   am
    28    31    26   ar
    29    90    50    1
    30     6     5    1
    31     6    25    1
    32    50     5    1
    33    65    18    1
    34     5     4    1
    35    28    75    1
    36    28    27   ar
    37    71    24    1
    38    26    27   ar
    39    26    25    1
    40    27    74    1
    41    66    18    1
    42    48     1    2
    43     1    42   am
    44    25    73    1
    45    25    72    1
    46    18    19    1
    47    18     3    1
    48    24    19   ar
    49    24    23   ar
    50    70    23    1
    51    19    20   ar
    52    23    22   ar
    53     4     3    1
    54     4    49    1
    55     4    46    1
    56     3    42    1
    57     3    45    1
    58    49    89    1
    59    42     2    1
    60    20    67    1
    61    20    21   ar
    62    22    69    1
    63    22    21   ar
    64    21    68    1
    65    39     2    1
    66     2    41    1
    67     2     8    1
    68    58    13    1
    69     8    13   ar
    70     8     9   ar
    71    13    12   ar
    72    55     9    1
    73     9    10   ar
    74    12    57    1
    75    12    11   ar
    76    10    11   ar
    77    10    14    1
    78    11    56    1
    79    88    44    1
    80    14    44   am
    81    14    51    2
    82    44    15    1
    83    64    17    1
    84    84    38    1
    85    62    17    1
    86    17    15    1
    87    17    63    1
    88    15    38    1
    89    15    16    1
    90    38    83    1
    91    38    85    1
    92    61    16    1
    93    16    60    1
    94    16    59    1
