@<TRIPOS>MOLECULE
Mol_05
 85 87 0 0 0
SMALL
GASTEIGER
Energy = 0

@<TRIPOS>ATOM
      1 C           2.7592   -4.6600    0.3527 C.2     1  LIG11       0.3054
      2 C           2.1797   -4.9649    2.6820 C.3     1  LIG11       0.0165
      3 C           0.7682   -3.4664    1.1779 C.3     1  LIG11       0.0598
      4 C           1.0234   -1.9717    0.8746 C.3     1  LIG11       0.1016
      5 C           1.5848   -1.7633   -0.5520 C.3     1  LIG11       0.1016
      6 C           2.9598   -2.4582   -0.7305 C.3     1  LIG11       0.0598
      7 C           3.4388   -4.6256   -1.9768 C.3     1  LIG11       0.0165
      8 C           3.2157   -4.1489    3.4978 C.3     1  LIG11      -0.0371
      9 C           3.3694   -4.7016    4.9410 C.3     1  LIG11      -0.0516
     10 C           2.0868   -4.4676    5.7922 C.3     1  LIG11      -0.0533
     11 C           2.2759   -4.7999    7.2952 C.3     1  LIG11      -0.0559
     12 C           3.2070   -3.7929    8.0191 C.3     1  LIG11      -0.0653
     13 C           2.0819   -3.9956   -5.6303 C.3     1  LIG11      -0.0530
     14 C           2.8386   -3.8590   -6.9824 C.3     1  LIG11      -0.0533
     15 C           3.8944   -2.7184   -6.9731 C.3     1  LIG11      -0.0559
     16 C           4.5550   -2.5425   -8.3628 C.3     1  LIG11      -0.0653
     17 H           2.5360   -6.0030    2.5935 H       1  LIG11       0.0465
     18 C          -0.2350   -4.1639    0.2132 C.3     1  LIG11      -0.0064
     19 C          -0.5631   -5.5931    0.6732 C.ar    1  LIG11      -0.0455
     20 C           0.0158   -6.6953    0.0320 C.ar    1  LIG11      -0.0585
     21 C          -0.3079   -7.9967    0.4266 C.ar    1  LIG11      -0.0615
     22 C          -1.2019   -8.2057    1.4793 C.ar    1  LIG11      -0.0617
     23 C          -1.7736   -7.1100    2.1326 C.ar    1  LIG11      -0.0615
     24 C          -1.4549   -5.8095    1.7305 C.ar    1  LIG11      -0.0585
     25 C           4.0467   -1.9298    0.2544 C.3     1  LIG11      -0.0064
     26 C           5.4785   -2.1726   -0.2561 C.ar    1  LIG11      -0.0455
     27 C           6.1083   -3.4082   -0.0578 C.ar    1  LIG11      -0.0585
     28 C           7.4187   -3.6157   -0.4974 C.ar    1  LIG11      -0.0615
     29 C           8.1127   -2.5892   -1.1459 C.ar    1  LIG11      -0.0617
     30 C           7.4895   -1.3573   -1.3540 C.ar    1  LIG11      -0.0615
     31 C           6.1770   -1.1535   -0.9140 C.ar    1  LIG11      -0.0585
     32 C           2.3841   -4.5041   -3.1176 C.3     1  LIG11      -0.0371
     33 C           3.0663   -4.0574   -4.4328 C.3     1  LIG11      -0.0516
     34 H           1.2282   -5.0382    3.2187 H       1  LIG11       0.0465
     35 H           0.2101   -3.3952    2.1271 H       1  LIG11       0.0530
     36 H           1.7390   -1.6000    1.6273 H       1  LIG11       0.0638
     37 H           0.8864   -2.1662   -1.2998 H       1  LIG11       0.0638
     38 H           3.2896   -2.0852   -1.7160 H       1  LIG11       0.0530
     39 H           3.6493   -5.6994   -1.8382 H       1  LIG11       0.0465
     40 H           4.4037   -4.1743   -2.2574 H       1  LIG11       0.0465
     41 H           2.9179   -3.0881    3.5434 H       1  LIG11       0.0280
     42 N           1.9535   -4.3082    1.3889 N.am    1  LIG11      -0.2796
     43 N           2.9604   -3.9288   -0.7753 N.am    1  LIG11      -0.2796
     44 H           4.1907   -4.2008    2.9832 H       1  LIG11       0.0280
     45 H           4.2300   -4.1869    5.3929 H       1  LIG11       0.0266
     46 H           3.6028   -5.7786    4.9040 H       1  LIG11       0.0266
     47 H           1.2733   -5.1217    5.4428 H       1  LIG11       0.0265
     48 O           3.3562   -5.7199    0.4449 O.2     1  LIG11      -0.2524
     49 O          -0.2249   -1.2709    1.0588 O.3     1  LIG11      -0.3873
     50 O           1.7302   -0.3612   -0.8560 O.3     1  LIG11      -0.3873
     51 H           1.7509   -3.4226    5.6895 H       1  LIG11       0.0265
     52 H           2.6668   -5.8255    7.4001 H       1  LIG11       0.0263
     53 H           1.2858   -4.7599    7.7826 H       1  LIG11       0.0263
     54 H           3.1839   -3.9851    9.1025 H       1  LIG11       0.0230
     55 H           2.8681   -2.7605    7.8393 H       1  LIG11       0.0230
     56 H           4.2494   -3.8877    7.6838 H       1  LIG11       0.0230
     57 H           1.3908   -3.1473   -5.4912 H       1  LIG11       0.0265
     58 H           1.4805   -4.9197   -5.6638 H       1  LIG11       0.0265
     59 H           2.1002   -3.6752   -7.7806 H       1  LIG11       0.0265
     60 H           3.3498   -4.8103   -7.2065 H       1  LIG11       0.0265
     61 H           4.7066   -2.9508   -6.2651 H       1  LIG11       0.0263
     62 H           3.4174   -1.7737   -6.6637 H       1  LIG11       0.0263
     63 H           5.3260   -1.7569   -8.3141 H       1  LIG11       0.0230
     64 H           3.8031   -2.2532   -9.1125 H       1  LIG11       0.0230
     65 H           5.0324   -3.4832   -8.6798 H       1  LIG11       0.0230
     66 H           0.1720   -4.2401   -0.8022 H       1  LIG11       0.0332
     67 H          -1.1721   -3.5865    0.1548 H       1  LIG11       0.0332
     68 H           0.7211   -6.5523   -0.7808 H       1  LIG11       0.0620
     69 H           0.1358   -8.8448   -0.0862 H       1  LIG11       0.0618
     70 H          -1.4512   -9.2164    1.7882 H       1  LIG11       0.0618
     71 H          -2.4672   -7.2716    2.9523 H       1  LIG11       0.0618
     72 H          -1.9070   -4.9664    2.2429 H       1  LIG11       0.0620
     73 H           3.9540   -2.4108    1.2366 H       1  LIG11       0.0332
     74 H           3.9151   -0.8475    0.4097 H       1  LIG11       0.0332
     75 H           5.5818   -4.2142    0.4423 H       1  LIG11       0.0620
     76 H           7.9019   -4.5746   -0.3353 H       1  LIG11       0.0618
     77 H           9.1317   -2.7490   -1.4860 H       1  LIG11       0.0618
     78 H           8.0246   -0.5571   -1.8567 H       1  LIG11       0.0618
     79 H           5.7071   -0.1907   -1.0871 H       1  LIG11       0.0620
     80 H           1.6108   -3.7630   -2.8743 H       1  LIG11       0.0280
     81 H           1.8686   -5.4682   -3.2665 H       1  LIG11       0.0280
     82 H           3.8819   -4.7621   -4.6613 H       1  LIG11       0.0266
     83 H           3.4933   -3.0548   -4.2584 H       1  LIG11       0.0266
     84 H          -0.1305   -0.3247    1.1105 H       1  LIG11       0.2100
     85 H           0.8978    0.0966   -0.9334 H       1  LIG11       0.2100
@<TRIPOS>BOND
     1    64    16    1
     2    65    16    1
     3    16    63    1
     4    16    15    1
     5    59    14    1
     6    60    14    1
     7    14    15    1
     8    14    13    1
     9    15    62    1
    10    15    61    1
    11    58    13    1
    12    13    57    1
    13    13    33    1
    14    82    33    1
    15    33    83    1
    16    33    32    1
    17    81    32    1
    18    32    80    1
    19    32     7    1
    20    40     7    1
    21     7    39    1
    22     7    43    1
    23    78    30    1
    24    38     6    1
    25    77    29    1
    26    30    29   ar
    27    30    31   ar
    28    37     5    1
    29    29    28   ar
    30    79    31    1
    31    85    50    1
    32    31    26   ar
    33    50     5    1
    34    66    18    1
    35    68    20    1
    36    43     6    1
    37    43     1   am
    38     6     5    1
    39     6    25    1
    40     5     4    1
    41    28    76    1
    42    28    27   ar
    43    26    27   ar
    44    26    25    1
    45    69    21    1
    46    27    75    1
    47    20    21   ar
    48    20    19   ar
    49    67    18    1
    50    18    19    1
    51    18     3    1
    52    25    74    1
    53    25    73    1
    54     1    48    2
    55     1    42   am
    56    21    22   ar
    57    19    24   ar
    58     4    49    1
    59     4     3    1
    60     4    36    1
    61    49    84    1
    62     3    42    1
    63     3    35    1
    64    42     2    1
    65    22    70    1
    66    22    23   ar
    67    24    23   ar
    68    24    72    1
    69    23    71    1
    70    17     2    1
    71     2    34    1
    72     2     8    1
    73    44     8    1
    74     8    41    1
    75     8     9    1
    76    46     9    1
    77     9    45    1
    78     9    10    1
    79    47    10    1
    80    51    10    1
    81    10    11    1
    82    11    52    1
    83    11    53    1
    84    11    12    1
    85    56    12    1
    86    55    12    1
    87    12    54    1
