@<TRIPOS>MOLECULE
Mol_87
 104 110 0 0 0
SMALL
GASTEIGER
Energy = 0

@<TRIPOS>ATOM
      1 C           2.7780   -4.9124    0.0555 C.2     1  LIG11       0.3060
      2 C           3.5026   -4.7804   -2.2547 C.3     1  LIG11       0.0416
      3 C           2.9095   -2.6678   -0.9656 C.3     1  LIG11       0.0601
      4 C           1.5302   -2.0364   -0.6491 C.3     1  LIG11       0.1016
      5 C           1.1087   -2.2713    0.8278 C.3     1  LIG11       0.1016
      6 C           0.8692   -3.7705    1.1285 C.3     1  LIG11       0.0601
      7 C           2.3398   -5.4324    2.3744 C.3     1  LIG11       0.0416
      8 C           2.8100   -4.3730   -3.5643 C.ar    1  LIG11      -0.0293
      9 C           3.5464   -3.7888   -4.5990 C.ar    1  LIG11      -0.0449
     10 C           2.9576   -3.5633   -5.8483 C.ar    1  LIG11       0.0374
     11 C           1.5823   -3.7455   -6.0139 C.ar    1  LIG11      -0.0496
     12 C           0.8259   -4.2744   -4.9657 C.ar    1  LIG11      -0.0607
     13 C           1.4436   -4.6070   -3.7558 C.ar    1  LIG11      -0.0570
     14 C           3.8111   -3.1608   -7.0294 C.2     1  LIG11       0.2493
     15 C           0.2491   -7.1193    8.3728 C.ar    1  LIG11       0.1251
     16 N           0.3568   -8.4534    8.2189 N.ar    1  LIG11      -0.2396
     17 C          -0.0264   -9.3148    9.1792 C.ar    1  LIG11       0.0413
     18 C           4.0341   -2.1134   -0.0411 C.3     1  LIG11      -0.0064
     19 C           5.4578   -2.3191   -0.5789 C.ar    1  LIG11      -0.0455
     20 C           6.1155   -3.5409   -0.3931 C.ar    1  LIG11      -0.0585
     21 C           7.4254   -3.7158   -0.8489 C.ar    1  LIG11      -0.0615
     22 C           8.0906   -2.6655   -1.4871 C.ar    1  LIG11      -0.0617
     23 C           7.4383   -1.4448   -1.6791 C.ar    1  LIG11      -0.0615
     24 C           6.1232   -1.2772   -1.2360 C.ar    1  LIG11      -0.0585
     25 C          -0.2377   -4.4007    0.2332 C.3     1  LIG11      -0.0064
     26 C          -0.7706   -5.7327    0.7847 C.ar    1  LIG11      -0.0455
     27 C          -0.2016   -6.9472    0.3826 C.ar    1  LIG11      -0.0585
     28 C          -0.7049   -8.1591    0.8648 C.ar    1  LIG11      -0.0615
     29 C          -1.7797   -8.1656    1.7579 C.ar    1  LIG11      -0.0617
     30 C          -2.3515   -6.9570    2.1643 C.ar    1  LIG11      -0.0615
     31 C          -1.8453   -5.7462    1.6819 C.ar    1  LIG11      -0.0585
     32 C           2.2748   -4.6454    3.6938 C.ar    1  LIG11      -0.0293
     33 C           1.4259   -5.0653    4.7211 C.ar    1  LIG11      -0.0449
     34 C           1.4485   -4.4255    5.9652 C.ar    1  LIG11       0.0374
     35 C           2.1907   -3.2551    6.1400 C.ar    1  LIG11      -0.0496
     36 C           3.0114   -2.8033    5.1047 C.ar    1  LIG11      -0.0607
     37 C           3.0721   -3.5141    3.9020 C.ar    1  LIG11      -0.0570
     38 C           0.6965   -5.0273    7.1294 C.2     1  LIG11       0.2493
     39 C          -0.6139   -8.8388   10.3535 C.ar    1  LIG11       0.0730
     40 C          -0.7807   -7.4590   10.5166 C.ar    1  LIG11      -0.0454
     41 C          -0.3495   -6.5792    9.5190 C.ar    1  LIG11      -0.0210
     42 N           2.9509   -4.1339   -1.0518 N.am    1  LIG11      -0.2752
     43 N           2.0670   -4.6175    1.1810 N.am    1  LIG11      -0.2752
     44 N           4.9850   -3.8083   -7.2013 N.am    1  LIG11      -0.2664
     45 C           5.8781   -3.6723   -8.2968 C.ar    1  LIG11       0.1251
     46 N           0.8075   -6.3610    7.3120 N.am    1  LIG11      -0.2664
     47 N           7.0001   -4.4118   -8.1943 N.ar    1  LIG11      -0.2396
     48 O           3.3278   -6.0017    0.0460 O.2     1  LIG11      -0.2524
     49 O           1.6144   -0.6267   -0.9432 O.3     1  LIG11      -0.3873
     50 O          -0.1006   -1.5553    1.1536 O.3     1  LIG11      -0.3873
     51 O           3.3743   -2.2938   -7.7657 O.2     1  LIG11      -0.2698
     52 O           0.0525   -4.2725    7.8367 O.2     1  LIG11      -0.2698
     53 C           7.8870   -4.5061   -9.2024 C.ar    1  LIG11       0.0413
     54 C           7.7014   -3.7648  -10.3711 C.ar    1  LIG11       0.0730
     55 C           6.5823   -2.9308  -10.4728 C.ar    1  LIG11      -0.0454
     56 C           5.6555   -2.8734   -9.4271 C.ar    1  LIG11      -0.0210
     57 H           3.4127   -5.8783   -2.2552 H       1  LIG11       0.0514
     58 H           4.5767   -4.5513   -2.3027 H       1  LIG11       0.0514
     59 H           3.1562   -2.2615   -1.9620 H       1  LIG11       0.0531
     60 H           0.7997   -2.4686   -1.3522 H       1  LIG11       0.0638
     61 H           1.8839   -1.9207    1.5283 H       1  LIG11       0.0638
     62 H           0.4140   -3.7569    2.1341 H       1  LIG11       0.0531
     63 H           3.3553   -5.8605    2.3826 H       1  LIG11       0.0514
     64 H           1.6305   -6.2741    2.3762 H       1  LIG11       0.0514
     65 H           4.5843   -3.5162   -4.4379 H       1  LIG11       0.0628
     66 H           1.1095   -3.4927   -6.9584 H       1  LIG11       0.0625
     67 H          -0.2399   -4.4356   -5.0977 H       1  LIG11       0.0618
     68 H           0.8566   -5.0597   -2.9675 H       1  LIG11       0.0621
     69 H           0.1291  -10.3776    9.0264 H       1  LIG11       0.0836
     70 C          -1.0548   -9.8404   11.4212 C.3     1  LIG11       0.4188
     71 H           4.0046   -2.6161    0.9294 H       1  LIG11       0.0332
     72 H           3.8825   -1.0367    0.1368 H       1  LIG11       0.0332
     73 H           5.6129   -4.3613    0.1096 H       1  LIG11       0.0620
     74 H           7.9278   -4.6676   -0.7052 H       1  LIG11       0.0618
     75 H           9.1117   -2.7968   -1.8322 H       1  LIG11       0.0618
     76 H           7.9543   -0.6255   -2.1709 H       1  LIG11       0.0618
     77 H           5.6257   -0.3266   -1.4008 H       1  LIG11       0.0620
     78 H           0.1493   -4.5962   -0.7722 H       1  LIG11       0.0332
     79 H          -1.0863   -3.7051    0.1323 H       1  LIG11       0.0332
     80 H           0.6346   -6.9571   -0.3096 H       1  LIG11       0.0620
     81 H          -0.2617   -9.0971    0.5444 H       1  LIG11       0.0618
     82 H          -2.1699   -9.1066    2.1342 H       1  LIG11       0.0618
     83 H          -3.1907   -6.9599    2.8536 H       1  LIG11       0.0618
     84 H          -2.2974   -4.8143    2.0063 H       1  LIG11       0.0620
     85 H           0.7495   -5.8977    4.5565 H       1  LIG11       0.0628
     86 H           2.1420   -2.7126    7.0795 H       1  LIG11       0.0625
     87 H           3.6081   -1.9060    5.2402 H       1  LIG11       0.0618
     88 H           3.7535   -3.1832    3.1324 H       1  LIG11       0.0621
     89 H          -1.2402   -7.0667   11.4186 H       1  LIG11       0.0625
     90 H          -0.4843   -5.5174    9.6724 H       1  LIG11       0.0652
     91 H           5.2420   -4.5025   -6.5318 H       1  LIG11       0.1566
     92 H           1.3634   -6.8824    6.6672 H       1  LIG11       0.1566
     93 H           8.7436   -5.1634   -9.0949 H       1  LIG11       0.0836
     94 H           0.7692   -0.1872   -0.9502 H       1  LIG11       0.2100
     95 H           0.0161   -0.6111    1.2078 H       1  LIG11       0.2100
     96 C           8.7335   -3.8989  -11.4910 C.3     1  LIG11       0.4188
     97 H           6.4267   -2.3287  -11.3626 H       1  LIG11       0.0625
     98 H           4.8014   -2.2197   -9.5337 H       1  LIG11       0.0652
     99 F          -1.6070  -10.9296   10.8218 F       1  LIG11      -0.1658
    100 F          -1.9698   -9.2862   12.2602 F       1  LIG11      -0.1658
    101 F           0.0346  -10.2292   12.1349 F       1  LIG11      -0.1658
    102 F           9.9702   -3.6514  -10.9828 F       1  LIG11      -0.1658
    103 F           8.4854   -3.0288  -12.5059 F       1  LIG11      -0.1658
    104 F           8.6968   -5.1704  -11.9709 F       1  LIG11      -0.1658
@<TRIPOS>BOND
     1   103    96    1
     2   104    96    1
     3    96   102    1
     4    96    54    1
     5    97    55    1
     6    55    54   ar
     7    55    56   ar
     8    54    53   ar
     9    98    56    1
    10    56    45   ar
    11    53    93    1
    12    53    47   ar
    13    45    47   ar
    14    45    44    1
    15    51    14    2
    16    44    14   am
    17    44    91    1
    18    14    10    1
    19    66    11    1
    20    11    10   ar
    21    11    12   ar
    22    10     9   ar
    23    67    12    1
    24    12    13   ar
    25     9    65    1
    26     9     8   ar
    27    13     8   ar
    28    13    68    1
    29     8     2    1
    30    58     2    1
    31    57     2    1
    32     2    42    1
    33    76    23    1
    34    59     3    1
    35    75    22    1
    36    23    22   ar
    37    23    24   ar
    38    22    21   ar
    39    77    24    1
    40    60     4    1
    41    24    19   ar
    42    42     3    1
    43    42     1   am
    44     3     4    1
    45     3    18    1
    46    94    49    1
    47    49     4    1
    48    21    74    1
    49    21    20   ar
    50    78    25    1
    51     4     5    1
    52    19    20   ar
    53    19    18    1
    54    20    73    1
    55    80    27    1
    56    18    72    1
    57    18    71    1
    58    48     1    2
    59     1    43   am
    60    79    25    1
    61    25    26    1
    62    25     6    1
    63    27    26   ar
    64    27    28   ar
    65    81    28    1
    66    26    31   ar
    67     5     6    1
    68     5    50    1
    69     5    61    1
    70    28    29   ar
    71     6    43    1
    72     6    62    1
    73    50    95    1
    74    43     7    1
    75    31    84    1
    76    31    30   ar
    77    29    82    1
    78    29    30   ar
    79    30    83    1
    80     7    64    1
    81     7    63    1
    82     7    32    1
    83    88    37    1
    84    32    37   ar
    85    32    33   ar
    86    37    36   ar
    87    85    33    1
    88    33    34   ar
    89    36    87    1
    90    36    35   ar
    91    34    35   ar
    92    34    38    1
    93    35    86    1
    94    92    46    1
    95    38    46   am
    96    38    52    2
    97    46    15    1
    98    16    15   ar
    99    16    17   ar
   100    15    41   ar
   101    69    17    1
   102    17    39   ar
   103    41    90    1
   104    41    40   ar
   105    39    40   ar
   106    39    70    1
   107    40    89    1
   108    99    70    1
   109    70   101    1
   110    70   100    1
