@<TRIPOS>MOLECULE
Mol_65
 80 84 0 0 0
SMALL
GASTEIGER
Energy = 0

@<TRIPOS>ATOM
      1 C           2.9279   -4.9635   -0.0187 C.2     1  LIG11       0.3060
      2 C           3.7426   -4.7757   -2.3175 C.3     1  LIG11       0.0416
      3 C           3.1571   -2.6994   -0.9756 C.3     1  LIG11       0.0601
      4 C           1.7548   -2.0684   -0.7956 C.3     1  LIG11       0.1016
      5 C           1.1893   -2.3119    0.6290 C.3     1  LIG11       0.1016
      6 C           0.9631   -3.8128    0.9328 C.3     1  LIG11       0.0601
      7 C           2.3313   -5.4608    2.2980 C.3     1  LIG11       0.0416
      8 C           2.8950   -4.4494   -3.5618 C.ar    1  LIG11      -0.0293
      9 C           3.4193   -3.7297   -4.6420 C.ar    1  LIG11      -0.0450
     10 C           2.6272   -3.4409   -5.7618 C.ar    1  LIG11       0.0368
     11 C           1.2701   -3.7778   -5.7554 C.ar    1  LIG11      -0.0496
     12 C           0.7375   -4.5003   -4.6864 C.ar    1  LIG11      -0.0607
     13 C           1.5702   -4.8942   -3.6357 C.ar    1  LIG11      -0.0570
     14 C           3.2044   -2.7748   -6.9921 C.2     1  LIG11       0.2415
     15 H           3.7911   -5.8756   -2.2986 H       1  LIG11       0.0514
     16 H           4.7764   -4.4184   -2.4438 H       1  LIG11       0.0514
     17 H           3.5024   -2.2753   -1.9358 H       1  LIG11       0.0531
     18 C           4.1962   -2.1779    0.0622 C.3     1  LIG11      -0.0064
     19 C           5.6522   -2.3594   -0.4007 C.ar    1  LIG11      -0.0455
     20 C           6.3290   -3.5630   -0.1707 C.ar    1  LIG11      -0.0585
     21 C           7.6611   -3.7141   -0.5691 C.ar    1  LIG11      -0.0615
     22 C           8.3259   -2.6649   -1.2098 C.ar    1  LIG11      -0.0617
     23 C           7.6560   -1.4617   -1.4454 C.ar    1  LIG11      -0.0615
     24 C           6.3248   -1.3130   -1.0447 C.ar    1  LIG11      -0.0585
     25 C          -0.0723   -4.4741   -0.0237 C.3     1  LIG11      -0.0064
     26 C          -0.6898   -5.7663    0.5400 C.ar    1  LIG11      -0.0455
     27 C          -1.8079   -5.6912    1.3792 C.ar    1  LIG11      -0.0585
     28 C          -2.3984   -6.8526    1.8862 C.ar    1  LIG11      -0.0615
     29 C          -1.8729   -8.1048    1.5573 C.ar    1  LIG11      -0.0617
     30 C          -0.7594   -8.1891    0.7170 C.ar    1  LIG11      -0.0615
     31 C          -0.1671   -7.0249    0.2161 C.ar    1  LIG11      -0.0585
     32 C           2.7001   -4.6098    3.5289 C.ar    1  LIG11      -0.0293
     33 C           1.8002   -4.4402    4.5879 C.ar    1  LIG11      -0.0450
     34 C           2.1666   -3.7242    5.7345 C.ar    1  LIG11       0.0368
     35 C           3.4061   -3.0799    5.7836 C.ar    1  LIG11      -0.0496
     36 C           4.3072   -3.2299    4.7270 C.ar    1  LIG11      -0.0607
     37 C           3.9639   -4.0132    3.6200 C.ar    1  LIG11      -0.0570
     38 C           1.2393   -3.6477    6.9274 C.2     1  LIG11       0.2415
     39 H           1.0942   -2.4993   -1.5674 H       1  LIG11       0.0638
     40 H           1.8831   -1.9264    1.3940 H       1  LIG11       0.0638
     41 H           0.4493   -3.7850    1.9099 H       1  LIG11       0.0531
     42 N           3.1830   -4.1624   -1.0968 N.am    1  LIG11      -0.2752
     43 N           2.1527   -4.6650    1.0678 N.am    1  LIG11      -0.2752
     44 N           4.4522   -3.0565   -7.4131 N.am    1  LIG11      -0.3253
     45 H           3.1330   -6.2124    2.2414 H       1  LIG11       0.0514
     46 N           0.5761   -4.7430    7.3440 N.am    1  LIG11      -0.3253
     47 H           1.4030   -6.0221    2.4855 H       1  LIG11       0.0514
     48 O           3.4472   -6.0668   -0.0280 O.2     1  LIG11      -0.2524
     49 O           1.8835   -0.6550   -1.0542 O.3     1  LIG11      -0.3873
     50 O          -0.0793   -1.6478    0.8145 O.3     1  LIG11      -0.3873
     51 O           2.5074   -1.9865   -7.6097 O.2     1  LIG11      -0.2704
     52 O           1.1151   -2.5831    7.5100 O.2     1  LIG11      -0.2704
     53 H           4.4488   -3.3913   -4.6136 H       1  LIG11       0.0628
     54 H           0.6320   -3.4906   -6.5863 H       1  LIG11       0.0625
     55 H          -0.3167   -4.7623   -4.6787 H       1  LIG11       0.0618
     56 H           1.1834   -5.5638   -2.8809 H       1  LIG11       0.0621
     57 H           4.0744   -2.6970    1.0206 H       1  LIG11       0.0332
     58 H           4.0341   -1.1045    0.2500 H       1  LIG11       0.0332
     59 H           5.8229   -4.3873    0.3215 H       1  LIG11       0.0620
     60 H           8.1826   -4.6476   -0.3803 H       1  LIG11       0.0618
     61 H           9.3591   -2.7829   -1.5234 H       1  LIG11       0.0618
     62 H           8.1707   -0.6423   -1.9389 H       1  LIG11       0.0618
     63 H           5.8185   -0.3721   -1.2361 H       1  LIG11       0.0620
     64 H           0.4243   -4.7107   -0.9646 H       1  LIG11       0.0332
     65 H          -0.8963   -3.7835   -0.2619 H       1  LIG11       0.0332
     66 H          -2.2280   -4.7248    1.6391 H       1  LIG11       0.0620
     67 H          -3.2670   -6.7830    2.5344 H       1  LIG11       0.0618
     68 H          -2.3287   -9.0079    1.9531 H       1  LIG11       0.0618
     69 H          -0.3561   -9.1625    0.4532 H       1  LIG11       0.0618
     70 H           0.7015   -7.1076   -0.4297 H       1  LIG11       0.0620
     71 H           0.8055   -4.8678    4.5270 H       1  LIG11       0.0628
     72 H           3.6704   -2.4745    6.6462 H       1  LIG11       0.0625
     73 H           5.2768   -2.7422    4.7723 H       1  LIG11       0.0618
     74 H           4.6931   -4.1649    2.8319 H       1  LIG11       0.0621
     75 H           4.7912   -2.6031   -8.2369 H       1  LIG11       0.1453
     76 H           5.0243   -3.7299   -6.9488 H       1  LIG11       0.1453
     77 H          -0.0372   -4.6681    8.1297 H       1  LIG11       0.1453
     78 H           0.7161   -5.6294    6.9058 H       1  LIG11       0.1453
     79 H           1.0492   -0.1994   -1.1039 H       1  LIG11       0.2100
     80 H          -0.0158   -0.7015    0.9019 H       1  LIG11       0.2100
@<TRIPOS>BOND
     1    75    44    1
     2    51    14    2
     3    44    14   am
     4    44    76    1
     5    14    10    1
     6    54    11    1
     7    10    11   ar
     8    10     9   ar
     9    11    12   ar
    10    12    55    1
    11    12    13   ar
    12     9    53    1
    13     9     8   ar
    14    13     8   ar
    15    13    56    1
    16     8     2    1
    17    16     2    1
    18     2    15    1
    19     2    42    1
    20    62    23    1
    21    17     3    1
    22    39     4    1
    23    61    22    1
    24    23    22   ar
    25    23    24   ar
    26    63    24    1
    27    22    21   ar
    28    79    49    1
    29    42     3    1
    30    42     1   am
    31    49     4    1
    32    24    19   ar
    33     3     4    1
    34     3    18    1
    35    64    25    1
    36     4     5    1
    37    21    60    1
    38    21    20   ar
    39    70    31    1
    40    19    20   ar
    41    19    18    1
    42    65    25    1
    43    20    59    1
    44    48     1    2
    45    25    26    1
    46    25     6    1
    47     1    43   am
    48    18    58    1
    49    18    57    1
    50    31    26   ar
    51    31    30   ar
    52    69    30    1
    53    26    27   ar
    54     5    50    1
    55     5     6    1
    56     5    40    1
    57    30    29   ar
    58    50    80    1
    59     6    43    1
    60     6    41    1
    61    43     7    1
    62    27    66    1
    63    27    28   ar
    64    29    28   ar
    65    29    68    1
    66    28    67    1
    67    45     7    1
    68     7    47    1
    69     7    32    1
    70    74    37    1
    71    32    37   ar
    72    32    33   ar
    73    37    36   ar
    74    71    33    1
    75    33    34   ar
    76    36    73    1
    77    36    35   ar
    78    34    35   ar
    79    34    38    1
    80    35    72    1
    81    78    46    1
    82    38    46   am
    83    38    52    2
    84    46    77    1
