@<TRIPOS>MOLECULE
Mol_55
 75 80 0 0 0
SMALL
GASTEIGER
Energy = 0

@<TRIPOS>ATOM
      1 C           2.9339   -4.6263   -0.4672 C.2     1  LIG11       0.3057
      2 C           2.5155   -5.4855    1.7788 C.3     1  LIG11       0.0416
      3 C           0.9657   -3.7620    0.7218 C.3     1  LIG11       0.0601
      4 C           1.0998   -2.2201    0.6867 C.3     1  LIG11       0.1016
      5 C           1.5749   -1.7098   -0.6989 C.3     1  LIG11       0.1016
      6 C           2.9858   -2.2362   -1.0561 C.3     1  LIG11       0.0598
      7 C           3.4783   -4.0425   -2.7755 C.3     1  LIG11       0.0194
      8 C           2.7511   -4.8107    3.1454 C.ar    1  LIG11      -0.0295
      9 C           1.8752   -5.0067    4.2203 C.ar    1  LIG11      -0.0493
     10 C           2.1234   -4.4240    5.4717 C.ar    1  LIG11      -0.0176
     11 C           3.2281   -3.5792    5.6408 C.ar    1  LIG11      -0.0179
     12 C           4.0947   -3.3612    4.5654 C.ar    1  LIG11      -0.0537
     13 C           3.8782   -4.0062    3.3442 C.ar    1  LIG11      -0.0565
     14 C           1.2822   -4.6797    6.5615 C.ar    1  LIG11      -0.0540
     15 C           1.5282   -4.0863    7.8038 C.ar    1  LIG11      -0.0612
     16 C           2.6153   -3.2235    7.9620 C.ar    1  LIG11      -0.0612
     17 C           3.4609   -2.9676    6.8799 C.ar    1  LIG11      -0.0540
     18 C          -0.0595   -4.3043   -0.3223 C.3     1  LIG11      -0.0064
     19 C          -0.6955   -5.6283    0.1350 C.ar    1  LIG11      -0.0455
     20 C          -1.8316   -5.6086    0.9536 C.ar    1  LIG11      -0.0585
     21 C          -2.4216   -6.8014    1.3819 C.ar    1  LIG11      -0.0615
     22 C          -1.8800   -8.0278    0.9887 C.ar    1  LIG11      -0.0617
     23 C          -0.7524   -8.0553    0.1632 C.ar    1  LIG11      -0.0615
     24 C          -0.1613   -6.8604   -0.2602 C.ar    1  LIG11      -0.0585
     25 C           4.0908   -1.8476   -0.0348 C.3     1  LIG11      -0.0064
     26 C           5.5084   -2.1308   -0.5630 C.ar    1  LIG11      -0.0455
     27 C           6.1308   -3.3571   -0.2997 C.ar    1  LIG11      -0.0585
     28 C           7.4392   -3.5988   -0.7282 C.ar    1  LIG11      -0.0615
     29 C           8.1307   -2.6225   -1.4496 C.ar    1  LIG11      -0.0617
     30 C           7.5086   -1.4049   -1.7382 C.ar    1  LIG11      -0.0615
     31 C           6.2029   -1.1626   -1.2989 C.ar    1  LIG11      -0.0585
     32 C           2.5547   -3.4053   -3.8526 C.3     1  LIG11      -0.0251
     33 C           2.3829   -4.1877   -5.1739 C.3     1  LIG11      -0.0485
     34 C           1.2265   -4.1343   -4.1510 C.3     1  LIG11      -0.0485
     35 H           3.4326   -6.0723    1.6135 H       1  LIG11       0.0514
     36 H           1.6894   -6.2098    1.8439 H       1  LIG11       0.0514
     37 H           0.4870   -3.9379    1.7014 H       1  LIG11       0.0531
     38 H           1.8067   -1.9295    1.4807 H       1  LIG11       0.0638
     39 H           0.8920   -2.0521   -1.4955 H       1  LIG11       0.0638
     40 H           3.2733   -1.6343   -1.9332 H       1  LIG11       0.0530
     41 H           3.4992   -5.1327   -2.9318 H       1  LIG11       0.0468
     42 N           2.2126   -4.5382    0.6887 N.am    1  LIG11      -0.2752
     43 N           3.0444   -3.6563   -1.4219 N.am    1  LIG11      -0.2793
     44 H           4.5017   -3.6711   -2.9421 H       1  LIG11       0.0468
     45 H           0.9962   -5.6277    4.0849 H       1  LIG11       0.0627
     46 H           4.9467   -2.6961    4.6726 H       1  LIG11       0.0624
     47 H           4.6061   -3.8872    2.5524 H       1  LIG11       0.0621
     48 O           3.5285   -5.6724   -0.6670 O.2     1  LIG11      -0.2524
     49 O          -0.1868   -1.6660    1.0343 O.3     1  LIG11      -0.3873
     50 O           1.6171   -0.2684   -0.7354 O.3     1  LIG11      -0.3873
     51 H           0.4303   -5.3441    6.4555 H       1  LIG11       0.0624
     52 H           0.8757   -4.2949    8.6463 H       1  LIG11       0.0618
     53 H           2.8026   -2.7543    8.9237 H       1  LIG11       0.0618
     54 H           4.3004   -2.2919    7.0131 H       1  LIG11       0.0624
     55 H           0.4192   -4.4496   -1.3003 H       1  LIG11       0.0332
     56 H          -0.8807   -3.5854   -0.4708 H       1  LIG11       0.0332
     57 H          -2.2655   -4.6626    1.2623 H       1  LIG11       0.0620
     58 H          -3.3005   -6.7756    2.0194 H       1  LIG11       0.0618
     59 H          -2.3348   -8.9555    1.3239 H       1  LIG11       0.0618
     60 H          -0.3362   -9.0083   -0.1492 H       1  LIG11       0.0618
     61 H           0.7163   -6.8948   -0.8982 H       1  LIG11       0.0620
     62 H           3.9599   -2.4146    0.8902 H       1  LIG11       0.0332
     63 H           4.0133   -0.7783    0.2203 H       1  LIG11       0.0332
     64 H           5.6041   -4.1334    0.2434 H       1  LIG11       0.0620
     65 H           7.9188   -4.5458   -0.4994 H       1  LIG11       0.0618
     66 H           9.1468   -2.8103   -1.7842 H       1  LIG11       0.0618
     67 H           8.0432   -0.6469   -2.3032 H       1  LIG11       0.0618
     68 H           5.7325   -0.2124   -1.5311 H       1  LIG11       0.0620
     69 H           2.5259   -2.3141   -3.9951 H       1  LIG11       0.0316
     70 H           2.8992   -5.1538   -5.2828 H       1  LIG11       0.0269
     71 H           2.2688   -3.5829   -6.0874 H       1  LIG11       0.0269
     72 H           1.0102   -5.0816   -3.6341 H       1  LIG11       0.0269
     73 H           0.3632   -3.5047   -4.4196 H       1  LIG11       0.0269
     74 H          -0.1635   -0.7352    1.2340 H       1  LIG11       0.2100
     75 H           0.7566    0.1387   -0.7074 H       1  LIG11       0.2100
@<TRIPOS>BOND
     1    71    33    1
     2    70    33    1
     3    33    34    1
     4    33    32    1
     5    73    34    1
     6    34    32    1
     7    34    72    1
     8    69    32    1
     9    32     7    1
    10    44     7    1
    11    41     7    1
    12     7    43    1
    13    67    30    1
    14    40     6    1
    15    66    29    1
    16    30    29   ar
    17    30    31   ar
    18    68    31    1
    19    39     5    1
    20    29    28   ar
    21    43     6    1
    22    43     1   am
    23    55    18    1
    24    31    26   ar
    25     6     5    1
    26     6    25    1
    27    61    24    1
    28    50    75    1
    29    50     5    1
    30    28    65    1
    31    28    27   ar
    32     5     4    1
    33    48     1    2
    34    26    27   ar
    35    26    25    1
    36    56    18    1
    37     1    42   am
    38    18    19    1
    39    18     3    1
    40    27    64    1
    41    24    19   ar
    42    24    23   ar
    43    60    23    1
    44    25    63    1
    45    25    62    1
    46    19    20   ar
    47    23    22   ar
    48     4     3    1
    49     4    49    1
    50     4    38    1
    51    42     3    1
    52    42     2    1
    53     3    37    1
    54    20    57    1
    55    20    21   ar
    56    22    59    1
    57    22    21   ar
    58    49    74    1
    59    21    58    1
    60    35     2    1
    61     2    36    1
    62     2     8    1
    63    47    13    1
    64     8    13   ar
    65     8     9   ar
    66    13    12   ar
    67    45     9    1
    68     9    10   ar
    69    12    46    1
    70    12    11   ar
    71    10    11   ar
    72    10    14   ar
    73    11    17   ar
    74    51    14    1
    75    14    15   ar
    76    17    54    1
    77    17    16   ar
    78    15    16   ar
    79    15    52    1
    80    16    53    1
