@<TRIPOS>MOLECULE
Mol_12
 88 90 0 0 0
SMALL
GASTEIGER
Energy = 0

@<TRIPOS>ATOM
      1 C           2.7774   -4.5699   -0.1628 C.2     1  LIG11       0.3054
      2 C           2.2204   -4.9624    2.1684 C.3     1  LIG11       0.0165
      3 C           0.7498   -3.4898    0.6876 C.3     1  LIG11       0.0598
      4 C           0.9643   -1.9742    0.4774 C.3     1  LIG11       0.1016
      5 C           1.5398   -1.6825   -0.9289 C.3     1  LIG11       0.1016
      6 C           2.9470   -2.3048   -1.1148 C.3     1  LIG11       0.0598
      7 C           3.4865   -4.3716   -2.4881 C.3     1  LIG11       0.0165
      8 C           2.0599   -3.9996    3.3780 C.3     1  LIG11      -0.0371
      9 C           3.6170   -3.5631   -5.7443 C.3     1  LIG11      -0.0507
     10 C           2.6779   -4.5665    4.6800 C.3     1  LIG11      -0.0514
     11 C           2.9667   -4.7455   -4.9702 C.3     1  LIG11      -0.0514
     12 C           4.0523   -3.6121   -8.2794 C.3     1  LIG11      -0.0627
     13 C           2.4564   -3.5644    5.8462 C.3     1  LIG11      -0.0507
     14 C           3.0480   -4.0780    7.1914 C.3     1  LIG11      -0.0467
     15 C           4.5775   -4.0398   -6.8824 C.3     1  LIG11      -0.0467
     16 C           6.0159   -3.4950   -6.6552 C.3     1  LIG11      -0.0627
     17 C           3.3069   -2.8855    8.1522 C.3     1  LIG11      -0.0627
     18 C          -0.2070   -4.1646   -0.3346 C.3     1  LIG11      -0.0064
     19 C          -0.7456   -5.4963    0.2166 C.ar    1  LIG11      -0.0455
     20 C          -0.0765   -6.6972   -0.0451 C.ar    1  LIG11      -0.0585
     21 C          -0.5854   -7.9096    0.4313 C.ar    1  LIG11      -0.0615
     22 C          -1.7617   -7.9287    1.1853 C.ar    1  LIG11      -0.0617
     23 C          -2.4267   -6.7314    1.4634 C.ar    1  LIG11      -0.0615
     24 C          -1.9171   -5.5211    0.9839 C.ar    1  LIG11      -0.0585
     25 C           4.0076   -1.8064   -0.0878 C.3     1  LIG11      -0.0064
     26 C           5.4485   -2.0676   -0.5649 C.ar    1  LIG11      -0.0455
     27 C           6.0710   -3.2959   -0.3073 C.ar    1  LIG11      -0.0585
     28 C           7.3912   -3.5221   -0.7062 C.ar    1  LIG11      -0.0615
     29 C           8.1022   -2.5228   -1.3776 C.ar    1  LIG11      -0.0617
     30 C           7.4853   -1.3000   -1.6500 C.ar    1  LIG11      -0.0615
     31 C           6.1633   -1.0771   -1.2491 C.ar    1  LIG11      -0.0585
     32 C           2.4012   -4.2770   -3.5988 C.3     1  LIG11      -0.0371
     33 C           2.1074   -5.1177    7.8662 C.3     1  LIG11      -0.0627
     34 H           3.2519   -5.3499    2.2174 H       1  LIG11       0.0465
     35 H           1.5343   -5.8187    2.2667 H       1  LIG11       0.0465
     36 H           0.1373   -3.5197    1.5984 H       1  LIG11       0.0530
     37 H           1.6584   -1.6195    1.2568 H       1  LIG11       0.0638
     38 H           0.8820   -2.1055   -1.7059 H       1  LIG11       0.0638
     39 H           3.2833   -1.8608   -2.0687 H       1  LIG11       0.0530
     40 H           3.7498   -5.4369   -2.3861 H       1  LIG11       0.0465
     41 H           4.4090   -3.8555   -2.7964 H       1  LIG11       0.0465
     42 N           1.9745   -4.2693    0.8945 N.am    1  LIG11      -0.2796
     43 N           2.9876   -3.7672   -1.2452 N.am    1  LIG11      -0.2796
     44 H           0.9998   -3.8091    3.6022 H       1  LIG11       0.0280
     45 H           2.5471   -3.0422    3.1332 H       1  LIG11       0.0280
     46 H           4.1649   -2.9218   -5.0370 H       1  LIG11       0.0268
     47 H           2.8011   -2.9416   -6.1509 H       1  LIG11       0.0268
     48 O           3.3534   -5.6449   -0.1265 O.2     1  LIG11      -0.2524
     49 O          -0.3049   -1.3209    0.6901 O.3     1  LIG11      -0.3873
     50 O           1.6313   -0.2628   -1.1619 O.3     1  LIG11      -0.3873
     51 H           3.7602   -4.7180    4.5324 H       1  LIG11       0.0266
     52 H           2.2148   -5.5400    4.9028 H       1  LIG11       0.0266
     53 H           2.1640   -5.1718   -5.5958 H       1  LIG11       0.0266
     54 H           3.7012   -5.5465   -4.7889 H       1  LIG11       0.0266
     55 H           4.7407   -3.9462   -9.0712 H       1  LIG11       0.0232
     56 H           3.9606   -2.5164   -8.3341 H       1  LIG11       0.0232
     57 H           3.0638   -4.0614   -8.4647 H       1  LIG11       0.0232
     58 H           1.3817   -3.3537    5.9736 H       1  LIG11       0.0268
     59 H           2.9437   -2.6181    5.5601 H       1  LIG11       0.0268
     60 H           4.0245   -4.5553    6.9972 H       1  LIG11       0.0295
     61 H           4.6498   -5.1416   -6.8938 H       1  LIG11       0.0295
     62 H           6.7018   -3.8694   -7.4305 H       1  LIG11       0.0232
     63 H           6.3967   -3.8185   -5.6729 H       1  LIG11       0.0232
     64 H           6.0161   -2.3944   -6.6881 H       1  LIG11       0.0232
     65 H           3.7732   -3.2398    9.0844 H       1  LIG11       0.0232
     66 H           2.3621   -2.3772    8.3967 H       1  LIG11       0.0232
     67 H           3.9911   -2.1569    7.6889 H       1  LIG11       0.0232
     68 H           0.3021   -4.3579   -1.2868 H       1  LIG11       0.0332
     69 H          -1.0617   -3.5007   -0.5416 H       1  LIG11       0.0332
     70 H           0.8433   -6.6951   -0.6210 H       1  LIG11       0.0620
     71 H          -0.0664   -8.8383    0.2146 H       1  LIG11       0.0618
     72 H          -2.1580   -8.8701    1.5541 H       1  LIG11       0.0618
     73 H          -3.3398   -6.7432    2.0514 H       1  LIG11       0.0618
     74 H          -2.4405   -4.5979    1.2121 H       1  LIG11       0.0620
     75 H           3.8821   -2.3035    0.8847 H       1  LIG11       0.0332
     76 H           3.8849   -0.7237    0.0749 H       1  LIG11       0.0332
     77 H           5.5315   -4.0825    0.2093 H       1  LIG11       0.0620
     78 H           7.8681   -4.4743   -0.4938 H       1  LIG11       0.0618
     79 H           9.1292   -2.6969   -1.6854 H       1  LIG11       0.0618
     80 H           8.0343   -0.5219   -2.1724 H       1  LIG11       0.0618
     81 H           5.6979   -0.1225   -1.4726 H       1  LIG11       0.0620
     82 H           2.0155   -3.2494   -3.6923 H       1  LIG11       0.0280
     83 H           1.5562   -4.9213   -3.3086 H       1  LIG11       0.0280
     84 H           2.0526   -6.0448    7.2766 H       1  LIG11       0.0232
     85 H           1.0894   -4.7117    7.9738 H       1  LIG11       0.0232
     86 H           2.4791   -5.3754    8.8696 H       1  LIG11       0.0232
     87 H          -0.2378   -0.3786    0.8099 H       1  LIG11       0.2100
     88 H           0.7810    0.1635   -1.2136 H       1  LIG11       0.2100
@<TRIPOS>BOND
     1    55    12    1
     2    57    12    1
     3    56    12    1
     4    12    15    1
     5    62    16    1
     6    61    15    1
     7    15    16    1
     8    15     9    1
     9    64    16    1
    10    16    63    1
    11    47     9    1
    12     9    46    1
    13     9    11    1
    14    53    11    1
    15    11    54    1
    16    11    32    1
    17    82    32    1
    18    32    83    1
    19    32     7    1
    20    41     7    1
    21     7    40    1
    22     7    43    1
    23    80    30    1
    24    39     6    1
    25    38     5    1
    26    79    29    1
    27    30    29   ar
    28    30    31   ar
    29    81    31    1
    30    29    28   ar
    31    68    18    1
    32    31    26   ar
    33    43     6    1
    34    43     1   am
    35    88    50    1
    36    50     5    1
    37     6     5    1
    38     6    25    1
    39     5     4    1
    40    28    78    1
    41    28    27   ar
    42    70    20    1
    43    26    27   ar
    44    26    25    1
    45    69    18    1
    46    18    19    1
    47    18     3    1
    48    27    77    1
    49     1    48    2
    50     1    42   am
    51    25    76    1
    52    25    75    1
    53    20    19   ar
    54    20    21   ar
    55    71    21    1
    56    19    24   ar
    57    21    22   ar
    58     4     3    1
    59     4    49    1
    60     4    37    1
    61     3    42    1
    62     3    36    1
    63    49    87    1
    64    42     2    1
    65    24    74    1
    66    24    23   ar
    67    22    23   ar
    68    22    72    1
    69    23    73    1
    70     2    34    1
    71     2    35    1
    72     2     8    1
    73    45     8    1
    74     8    44    1
    75     8    10    1
    76    51    10    1
    77    10    52    1
    78    10    13    1
    79    59    13    1
    80    13    58    1
    81    13    14    1
    82    60    14    1
    83    14    33    1
    84    14    17    1
    85    84    33    1
    86    67    17    1
    87    33    85    1
    88    33    86    1
    89    17    66    1
    90    17    65    1
