@<TRIPOS>MOLECULE
Mol_29
 72 76 0 0 0
SMALL
GASTEIGER
Energy = 0

@<TRIPOS>ATOM
      1 C           2.7644   -5.0050   -0.0057 C.2     1  LIG11       0.3060
      2 C           3.5511   -4.7754   -2.2957 C.3     1  LIG11       0.0416
      3 C           2.9565   -2.7232   -0.9185 C.3     1  LIG11       0.0601
      4 C           1.5587   -2.0916   -0.7146 C.3     1  LIG11       0.1016
      5 C           0.9907   -2.3994    0.6968 C.3     1  LIG11       0.1016
      6 C           0.7575   -3.9137    0.9241 C.3     1  LIG11       0.0601
      7 C           2.1352   -5.5592    2.2896 C.3     1  LIG11       0.0416
      8 C           2.8368   -4.2828   -3.5659 C.ar    1  LIG11      -0.0287
      9 C           1.5148   -4.6641   -3.8255 C.ar    1  LIG11      -0.0570
     10 C           0.8597   -4.2337   -4.9831 C.ar    1  LIG11      -0.0601
     11 C           1.5479   -3.4687   -5.9281 C.ar    1  LIG11      -0.0434
     12 C           2.8711   -3.0934   -5.6837 C.ar    1  LIG11       0.0413
     13 C           3.4980   -3.4668   -4.4914 C.ar    1  LIG11      -0.0387
     14 CL          3.7485   -2.1569   -6.8758 Cl      1  LIG11      -0.0835
     15 H           3.4661   -5.8732   -2.3398 H       1  LIG11       0.0514
     16 H           4.6242   -4.5357   -2.3375 H       1  LIG11       0.0514
     17 CL          1.3793   -3.5163    7.1050 Cl      1  LIG11      -0.0835
     18 C           4.0015   -2.2293    0.1260 C.3     1  LIG11      -0.0064
     19 C           5.4535   -2.3938   -0.3556 C.ar    1  LIG11      -0.0455
     20 C           6.1280   -1.3187   -0.9468 C.ar    1  LIG11      -0.0585
     21 C           7.4593   -1.4506   -1.3550 C.ar    1  LIG11      -0.0615
     22 C           8.1259   -2.6655   -1.1822 C.ar    1  LIG11      -0.0617
     23 C           7.4561   -3.7469   -0.6020 C.ar    1  LIG11      -0.0615
     24 C           6.1254   -3.6122   -0.1963 C.ar    1  LIG11      -0.0585
     25 C          -0.2471   -4.5345   -0.0907 C.3     1  LIG11      -0.0064
     26 C          -0.7452   -5.9288    0.3258 C.ar    1  LIG11      -0.0455
     27 C          -1.9051   -6.0594    1.0989 C.ar    1  LIG11      -0.0585
     28 C          -2.3851   -7.3239    1.4533 C.ar    1  LIG11      -0.0615
     29 C          -1.7018   -8.4719    1.0438 C.ar    1  LIG11      -0.0617
     30 C          -0.5396   -8.3498    0.2775 C.ar    1  LIG11      -0.0615
     31 C          -0.0626   -7.0838   -0.0764 C.ar    1  LIG11      -0.0585
     32 C           2.6631   -4.7183    3.4666 C.ar    1  LIG11      -0.0287
     33 C           3.9764   -4.2320    3.4535 C.ar    1  LIG11      -0.0570
     34 C           4.4800   -3.4975    4.5320 C.ar    1  LIG11      -0.0601
     35 C           3.6853   -3.2819    5.6608 C.ar    1  LIG11      -0.0434
     36 C           2.3748   -3.7648    5.6849 C.ar    1  LIG11       0.0413
     37 C           1.8581   -4.4491    4.5804 C.ar    1  LIG11      -0.0387
     38 H           3.3001   -2.2730   -1.8662 H       1  LIG11       0.0531
     39 H           0.8990   -2.4796   -1.5083 H       1  LIG11       0.0638
     40 H           1.6851   -2.0582    1.4826 H       1  LIG11       0.0638
     41 H           0.2133   -3.9332    1.8850 H       1  LIG11       0.0531
     42 N           2.9853   -4.1830   -1.0722 N.am    1  LIG11      -0.2752
     43 N           1.9524   -4.7573    1.0642 N.am    1  LIG11      -0.2752
     44 H           2.8489   -6.3911    2.1926 H       1  LIG11       0.0514
     45 H           1.1760   -6.0296    2.5563 H       1  LIG11       0.0514
     46 H           0.9897   -5.3095   -3.1332 H       1  LIG11       0.0621
     47 H          -0.1804   -4.4978   -5.1523 H       1  LIG11       0.0618
     48 O           3.3566   -6.0711   -0.0180 O.2     1  LIG11      -0.2524
     49 O           1.6926   -0.6701   -0.9219 O.3     1  LIG11      -0.3873
     50 O          -0.2689   -1.7277    0.9086 O.3     1  LIG11      -0.3873
     51 H           1.0590   -3.1685   -6.8495 H       1  LIG11       0.0632
     52 H           4.5071   -3.1206   -4.2964 H       1  LIG11       0.0635
     53 H           3.8871   -2.7780    1.0674 H       1  LIG11       0.0332
     54 H           3.8366   -1.1641    0.3521 H       1  LIG11       0.0332
     55 H           5.6239   -0.3684   -1.0915 H       1  LIG11       0.0620
     56 H           7.9761   -0.6082   -1.8056 H       1  LIG11       0.0618
     57 H           9.1601   -2.7693   -1.4972 H       1  LIG11       0.0618
     58 H           7.9728   -4.6923   -0.4666 H       1  LIG11       0.0618
     59 H           5.6160   -4.4621    0.2447 H       1  LIG11       0.0620
     60 H           0.2279   -4.6391   -1.0695 H       1  LIG11       0.0332
     61 H          -1.1201   -3.8748   -0.2204 H       1  LIG11       0.0332
     62 H          -2.4444   -5.1762    1.4257 H       1  LIG11       0.0620
     63 H          -3.2904   -7.4155    2.0459 H       1  LIG11       0.0618
     64 H          -2.0728   -9.4546    1.3198 H       1  LIG11       0.0618
     65 H          -0.0083   -9.2407   -0.0440 H       1  LIG11       0.0618
     66 H           0.8417   -7.0066   -0.6713 H       1  LIG11       0.0620
     67 H           4.6200   -4.4335    2.6049 H       1  LIG11       0.0621
     68 H           5.4898   -3.0983    4.4979 H       1  LIG11       0.0618
     69 H           4.0825   -2.7444    6.5166 H       1  LIG11       0.0632
     70 H           0.8250   -4.7772    4.6036 H       1  LIG11       0.0635
     71 H           0.8604   -0.2127   -0.9921 H       1  LIG11       0.2100
     72 H          -0.1909   -0.7824    0.9963 H       1  LIG11       0.2100
@<TRIPOS>BOND
     1    14    12    1
     2    51    11    1
     3    11    12   ar
     4    11    10   ar
     5    12    13   ar
     6    47    10    1
     7    10     9   ar
     8    13    52    1
     9    13     8   ar
    10     9     8   ar
    11     9    46    1
    12     8     2    1
    13    15     2    1
    14    16     2    1
    15     2    42    1
    16    38     3    1
    17    56    21    1
    18    39     4    1
    19    57    22    1
    20    21    22   ar
    21    21    20   ar
    22    22    23   ar
    23    55    20    1
    24    42     3    1
    25    42     1   am
    26    60    25    1
    27    71    49    1
    28    20    19   ar
    29    49     4    1
    30     3     4    1
    31     3    18    1
    32     4     5    1
    33    66    31    1
    34    23    58    1
    35    23    24   ar
    36    19    24   ar
    37    19    18    1
    38    61    25    1
    39    24    59    1
    40    25    26    1
    41    25     6    1
    42    31    30   ar
    43    31    26   ar
    44    65    30    1
    45    48     1    2
    46     1    43   am
    47    18    54    1
    48    18    53    1
    49    30    29   ar
    50    26    27   ar
    51     5    50    1
    52     5     6    1
    53     5    40    1
    54    50    72    1
    55     6    43    1
    56     6    41    1
    57    29    64    1
    58    29    28   ar
    59    43     7    1
    60    27    62    1
    61    27    28   ar
    62    28    63    1
    63    44     7    1
    64     7    45    1
    65     7    32    1
    66    67    33    1
    67    33    32   ar
    68    33    34   ar
    69    32    37   ar
    70    68    34    1
    71    34    35   ar
    72    37    70    1
    73    37    36   ar
    74    35    36   ar
    75    35    69    1
    76    36    17    1
