@<TRIPOS>MOLECULE
Mol_109
 85 90 0 0 0
SMALL
GASTEIGER
Energy = 0

@<TRIPOS>ATOM
      1 C           2.9541   -4.8270   -0.2201 C.2     1  LIG11       0.3060
      2 C           2.3986   -5.4915    2.0569 C.3     1  LIG11       0.0416
      3 C           0.9345   -3.8313    0.8077 C.3     1  LIG11       0.0601
      4 C           1.0631   -2.3135    0.5332 C.3     1  LIG11       0.1016
      5 C           1.5438   -2.0236   -0.9149 C.3     1  LIG11       0.1016
      6 C           2.9826   -2.5445   -1.1616 C.3     1  LIG11       0.0601
      7 C           3.7576   -4.5648   -2.5019 C.3     1  LIG11       0.0416
      8 C           2.7218   -4.7343    3.3560 C.ar    1  LIG11      -0.0293
      9 C           1.8019   -4.7135    4.4089 C.ar    1  LIG11      -0.0449
     10 C           2.1637   -4.1859    5.6531 C.ar    1  LIG11       0.0374
     11 C           3.3829   -3.5199    5.8044 C.ar    1  LIG11      -0.0496
     12 C           4.2857   -3.4860    4.7395 C.ar    1  LIG11      -0.0607
     13 C           3.9572   -4.0944    3.5226 C.ar    1  LIG11      -0.0570
     14 C           1.2611   -4.3790    6.8484 C.2     1  LIG11       0.2504
     15 N           3.9449   -2.9783   -7.1844 N.pl3   1  LIG11      -0.3580
     16 C           0.2680   -6.0162    8.2994 C.ar    1  LIG11       0.1995
     17 N          -0.3945   -5.2565    9.0414 N.ar    1  LIG11      -0.2228
     18 C          -0.0985   -4.5080   -0.1394 C.3     1  LIG11      -0.0064
     19 C          -0.6505   -5.8329    0.4011 C.ar    1  LIG11      -0.0455
     20 C          -1.7951   -5.8320    1.2059 C.ar    1  LIG11      -0.0585
     21 C          -2.3196   -7.0342    1.6881 C.ar    1  LIG11      -0.0615
     22 C          -1.6988   -8.2450    1.3697 C.ar    1  LIG11      -0.0617
     23 C          -0.5568   -8.2516    0.5640 C.ar    1  LIG11      -0.0615
     24 C          -0.0328   -7.0484    0.0827 C.ar    1  LIG11      -0.0585
     25 C           4.0214   -1.9530   -0.1603 C.3     1  LIG11      -0.0064
     26 C           5.4801   -2.1680   -0.5963 C.ar    1  LIG11      -0.0455
     27 C           6.1348   -3.3679   -0.2936 C.ar    1  LIG11      -0.0585
     28 C           7.4668   -3.5656   -0.6681 C.ar    1  LIG11      -0.0615
     29 C           8.1588   -2.5599   -1.3475 C.ar    1  LIG11      -0.0617
     30 C           7.5142   -1.3573   -1.6494 C.ar    1  LIG11      -0.0615
     31 C           6.1793   -1.1654   -1.2798 C.ar    1  LIG11      -0.0585
     32 C           3.0713   -4.1859   -3.8261 C.ar    1  LIG11      -0.0283
     33 C           1.6870   -4.3121   -3.9742 C.ar    1  LIG11      -0.0570
     34 C           1.0521   -3.9574   -5.1659 C.ar    1  LIG11      -0.0597
     35 C           1.8141   -3.5221   -6.2517 C.ar    1  LIG11      -0.0410
     36 C           3.2038   -3.4050   -6.1323 C.ar    1  LIG11       0.0248
     37 C           3.8209   -3.7340   -4.9188 C.ar    1  LIG11      -0.0364
     38 C          -0.9785   -6.0127   10.1169 C.ar    1  LIG11       0.0471
     39 C          -0.5260   -7.2533    9.8458 C.ar    1  LIG11       0.0228
     40 H           3.5075   -2.8221   -8.1045 H       1  LIG11       0.1423
     41 H           4.9551   -2.8043   -7.0785 H       1  LIG11       0.1423
     42 N           2.1682   -4.6288    0.8815 N.am    1  LIG11      -0.2752
     43 N           3.1237   -3.9997   -1.2936 N.am    1  LIG11      -0.2752
     44 N           0.9652   -5.6436    7.2112 N.am    1  LIG11      -0.2520
     45 H          -1.6124   -5.6721   10.9344 H       1  LIG11       0.0845
     46 H          -0.7311   -8.1392   10.4474 H       1  LIG11       0.0823
     47 O           3.5836   -5.8712   -0.2535 O.2     1  LIG11      -0.2524
     48 O          -0.2277   -1.7211    0.7944 O.3     1  LIG11      -0.3873
     49 O           1.5223   -0.6070   -1.1845 O.3     1  LIG11      -0.3873
     50 O           0.8823   -3.3916    7.4567 O.2     1  LIG11      -0.2698
     51 H           3.2432   -6.1906    1.9623 H       1  LIG11       0.0514
     52 H           1.5083   -6.1215    2.2003 H       1  LIG11       0.0514
     53 H           0.4531   -3.8587    1.8008 H       1  LIG11       0.0531
     54 N           0.2006   -7.2267    8.7521 N.ar    1  LIG11      -0.3325
     55 H           1.7589   -1.8986    1.2795 H       1  LIG11       0.0638
     56 H           0.8898   -2.5069   -1.6596 H       1  LIG11       0.0638
     57 H           3.2569   -2.0948   -2.1328 H       1  LIG11       0.0531
     58 H           3.7524   -5.6657   -2.5369 H       1  LIG11       0.0514
     59 H           4.8106   -4.2465   -2.5109 H       1  LIG11       0.0514
     60 H           0.8047   -5.1198    4.2770 H       1  LIG11       0.0628
     61 H           3.6297   -3.0488    6.7518 H       1  LIG11       0.0625
     62 H           5.2468   -2.9947    4.8641 H       1  LIG11       0.0618
     63 H           4.6744   -4.0778    2.7092 H       1  LIG11       0.0621
     64 H           0.3832   -4.7365   -1.0887 H       1  LIG11       0.0332
     65 H          -0.9492   -3.8415   -0.3532 H       1  LIG11       0.0332
     66 H          -2.2848   -4.8961    1.4564 H       1  LIG11       0.0620
     67 H          -3.2104   -7.0268    2.3088 H       1  LIG11       0.0618
     68 H          -2.1038   -9.1789    1.7472 H       1  LIG11       0.0618
     69 H          -0.0770   -9.1922    0.3109 H       1  LIG11       0.0618
     70 H           0.8559   -7.0659   -0.5413 H       1  LIG11       0.0620
     71 H           3.9245   -2.4161    0.8309 H       1  LIG11       0.0332
     72 H           3.8448   -0.8714   -0.0425 H       1  LIG11       0.0332
     73 H           5.6131   -4.1564    0.2374 H       1  LIG11       0.0620
     74 H           7.9642   -4.5009   -0.4298 H       1  LIG11       0.0618
     75 H           9.1937   -2.7124   -1.6390 H       1  LIG11       0.0618
     76 H           8.0529   -0.5715   -2.1706 H       1  LIG11       0.0618
     77 H           5.6919   -0.2270   -1.5245 H       1  LIG11       0.0620
     78 H           1.0904   -4.7017   -3.1687 H       1  LIG11       0.0621
     79 H          -0.0291   -4.0249   -5.2490 H       1  LIG11       0.0618
     80 H           1.3168   -3.2781   -7.1847 H       1  LIG11       0.0636
     81 H           4.8978   -3.6475   -4.8274 H       1  LIG11       0.0639
     82 H           1.3574   -6.3771    6.6631 H       1  LIG11       0.1580
     83 H          -0.2100   -0.7730    0.8863 H       1  LIG11       0.2100
     84 H           0.6425   -0.2424   -1.2141 H       1  LIG11       0.2100
     85 H           0.6693   -8.0431    8.3372 H       1  LIG11       0.1680
@<TRIPOS>BOND
     1    40    15    1
     2    80    35    1
     3    15    41    1
     4    15    36    1
     5    35    36   ar
     6    35    34   ar
     7    36    37   ar
     8    79    34    1
     9    34    33   ar
    10    37    81    1
    11    37    32   ar
    12    33    32   ar
    13    33    78    1
    14    32     7    1
    15    58     7    1
    16    59     7    1
    17     7    43    1
    18    76    30    1
    19    57     6    1
    20    56     5    1
    21    30    29   ar
    22    30    31   ar
    23    75    29    1
    24    77    31    1
    25    29    28   ar
    26    43     6    1
    27    43     1   am
    28    31    26   ar
    29    84    49    1
    30    49     5    1
    31     6     5    1
    32     6    25    1
    33    64    18    1
    34     5     4    1
    35    28    74    1
    36    28    27   ar
    37    26    27   ar
    38    26    25    1
    39    70    24    1
    40    65    18    1
    41    27    73    1
    42    47     1    2
    43     1    42   am
    44    25    72    1
    45    25    71    1
    46    18    19    1
    47    18     3    1
    48    24    19   ar
    49    24    23   ar
    50    69    23    1
    51    19    20   ar
    52     4    48    1
    53     4     3    1
    54     4    55    1
    55    23    22   ar
    56    48    83    1
    57     3    42    1
    58     3    53    1
    59    42     2    1
    60    20    66    1
    61    20    21   ar
    62    22    21   ar
    63    22    68    1
    64    21    67    1
    65    51     2    1
    66     2    52    1
    67     2     8    1
    68    63    13    1
    69     8    13   ar
    70     8     9   ar
    71    13    12   ar
    72    60     9    1
    73     9    10   ar
    74    12    62    1
    75    12    11   ar
    76    10    11   ar
    77    10    14    1
    78    11    61    1
    79    82    44    1
    80    14    44   am
    81    14    50    2
    82    44    16    1
    83    16    54   ar
    84    16    17   ar
    85    85    54    1
    86    54    39   ar
    87    17    38   ar
    88    39    38   ar
    89    39    46    1
    90    38    45    1
