@<TRIPOS>MOLECULE
Mol_32
 78 82 0 0 0
SMALL
GASTEIGER
Energy = 0

@<TRIPOS>ATOM
      1 C           2.9628   -5.0742    0.1228 C.2     1  LIG11       0.3060
      2 C           2.3559   -5.6321    2.4257 C.3     1  LIG11       0.0416
      3 C           0.9252   -4.0417    1.0706 C.3     1  LIG11       0.0601
      4 C           1.1458   -2.5297    0.8343 C.3     1  LIG11       0.1016
      5 C           1.6511   -2.2232   -0.6012 C.3     1  LIG11       0.1016
      6 C           3.0559   -2.8138   -0.8736 C.3     1  LIG11       0.0601
      7 C           3.6656   -4.8924   -2.1995 C.3     1  LIG11       0.0416
      8 C           2.7080   -4.7204    3.6148 C.ar    1  LIG11      -0.0298
      9 C           3.9250   -4.0296    3.6476 C.ar    1  LIG11      -0.0571
     10 C           4.2567   -3.2241    4.7420 C.ar    1  LIG11      -0.0612
     11 C           3.4110   -3.1702    5.8533 C.ar    1  LIG11      -0.0588
     12 C           2.2007   -3.8719    5.8409 C.ar    1  LIG11      -0.0501
     13 C           1.8292   -4.5849    4.6960 C.ar    1  LIG11      -0.0541
     14 C           1.2715   -3.8858    7.0602 C.3     1  LIG11      -0.0397
     15 H           3.1639   -6.3776    2.3743 H       1  LIG11       0.0514
     16 H           1.4365   -6.2007    2.6376 H       1  LIG11       0.0514
     17 C           3.8511   -2.7530   -6.8024 C.3     1  LIG11      -0.0397
     18 C          -0.0894   -4.6722    0.0727 C.3     1  LIG11      -0.0064
     19 C          -0.8230   -5.9142    0.6060 C.ar    1  LIG11      -0.0455
     20 C          -1.9782   -5.7645    1.3835 C.ar    1  LIG11      -0.0585
     21 C          -2.6835   -6.8855    1.8315 C.ar    1  LIG11      -0.0615
     22 C          -2.2362   -8.1690    1.5061 C.ar    1  LIG11      -0.0617
     23 C          -1.0777   -8.3260    0.7407 C.ar    1  LIG11      -0.0615
     24 C          -0.3678   -7.2030    0.3033 C.ar    1  LIG11      -0.0585
     25 C           4.1581   -2.2310    0.0621 C.3     1  LIG11      -0.0064
     26 C           5.5926   -2.4303   -0.4651 C.ar    1  LIG11      -0.0455
     27 C           6.2549   -3.6476   -0.2635 C.ar    1  LIG11      -0.0585
     28 C           7.5668   -3.8293   -0.7105 C.ar    1  LIG11      -0.0615
     29 C           8.2360   -2.7898   -1.3627 C.ar    1  LIG11      -0.0617
     30 C           7.5829   -1.5732   -1.5730 C.ar    1  LIG11      -0.0615
     31 C           6.2662   -1.3988   -1.1322 C.ar    1  LIG11      -0.0585
     32 C           2.9490   -4.4203   -3.4793 C.ar    1  LIG11      -0.0298
     33 C           1.5905   -4.6930   -3.6804 C.ar    1  LIG11      -0.0571
     34 C           0.9315   -4.2624   -4.8338 C.ar    1  LIG11      -0.0612
     35 C           1.6521   -3.6302   -5.8500 C.ar    1  LIG11      -0.0588
     36 C           3.0185   -3.3854   -5.6826 C.ar    1  LIG11      -0.0501
     37 C           3.6436   -3.7289   -4.4778 C.ar    1  LIG11      -0.0541
     38 H           0.3967   -4.0629    2.0399 H       1  LIG11       0.0531
     39 H           1.8690   -2.1839    1.5915 H       1  LIG11       0.0638
     40 H           0.9692   -2.6472   -1.3577 H       1  LIG11       0.0638
     41 H           3.3182   -2.3911   -1.8594 H       1  LIG11       0.0531
     42 N           2.1448   -4.8497    1.1955 N.am    1  LIG11      -0.2752
     43 N           3.1230   -4.2775   -0.9760 N.am    1  LIG11      -0.2752
     44 H           3.5696   -5.9898   -2.2162 H       1  LIG11       0.0514
     45 H           4.7396   -4.6622   -2.2573 H       1  LIG11       0.0514
     46 H           4.6256   -4.1243    2.8262 H       1  LIG11       0.0621
     47 H           5.1752   -2.6441    4.7344 H       1  LIG11       0.0618
     48 O           3.6212   -6.1011    0.1352 O.2     1  LIG11      -0.2524
     49 O          -0.1185   -1.8824    1.0910 O.3     1  LIG11      -0.3873
     50 O           1.7312   -0.8002   -0.8246 O.3     1  LIG11      -0.3873
     51 H           3.7009   -2.5855    6.7212 H       1  LIG11       0.0620
     52 H           0.8475   -5.0437    4.6586 H       1  LIG11       0.0623
     53 H           0.4557   -4.9621   -0.8259 H       1  LIG11       0.0332
     54 H          -0.8599   -3.9444   -0.2273 H       1  LIG11       0.0332
     55 H          -2.3376   -4.7726    1.6388 H       1  LIG11       0.0620
     56 H          -3.5805   -6.7609    2.4309 H       1  LIG11       0.0618
     57 H          -2.7872   -9.0407    1.8469 H       1  LIG11       0.0618
     58 H          -0.7301   -9.3223    0.4844 H       1  LIG11       0.0618
     59 H           0.5379   -7.3405   -0.2791 H       1  LIG11       0.0620
     60 H           4.0959   -2.7048    1.0468 H       1  LIG11       0.0332
     61 H           3.9961   -1.1520    0.2122 H       1  LIG11       0.0332
     62 H           5.7513   -4.4617    0.2462 H       1  LIG11       0.0620
     63 H           8.0689   -4.7785   -0.5501 H       1  LIG11       0.0618
     64 H           9.2583   -2.9275   -1.7032 H       1  LIG11       0.0618
     65 H           8.1012   -0.7631   -2.0782 H       1  LIG11       0.0618
     66 H           5.7744   -0.4477   -1.3102 H       1  LIG11       0.0620
     67 H           1.0341   -5.2560   -2.9480 H       1  LIG11       0.0621
     68 H          -0.1368   -4.4253   -4.9457 H       1  LIG11       0.0618
     69 H           1.1434   -3.3388   -6.7635 H       1  LIG11       0.0620
     70 H           4.6835   -3.4590   -4.3286 H       1  LIG11       0.0623
     71 H          -0.0563   -0.9369    1.1798 H       1  LIG11       0.2100
     72 H           0.8832   -0.3688   -0.8552 H       1  LIG11       0.2100
     73 H           1.0826   -4.9297    7.3540 H       1  LIG11       0.0278
     74 H           0.3168   -3.4095    6.7926 H       1  LIG11       0.0278
     75 H           1.7064   -3.3548    7.9201 H       1  LIG11       0.0278
     76 H           4.3018   -1.8177   -6.4393 H       1  LIG11       0.0278
     77 H           3.2446   -2.5331   -7.6936 H       1  LIG11       0.0278
     78 H           4.6508   -3.4538   -7.0861 H       1  LIG11       0.0278
@<TRIPOS>BOND
     1    77    17    1
     2    78    17    1
     3    17    76    1
     4    17    36    1
     5    69    35    1
     6    35    36   ar
     7    35    34   ar
     8    36    37   ar
     9    68    34    1
    10    34    33   ar
    11    37    70    1
    12    37    32   ar
    13    33    32   ar
    14    33    67    1
    15    32     7    1
    16    45     7    1
    17    44     7    1
    18     7    43    1
    19    65    30    1
    20    41     6    1
    21    64    29    1
    22    30    29   ar
    23    30    31   ar
    24    29    28   ar
    25    40     5    1
    26    66    31    1
    27    31    26   ar
    28    43     6    1
    29    43     1   am
    30     6     5    1
    31     6    25    1
    32    72    50    1
    33    53    18    1
    34    50     5    1
    35    28    63    1
    36    28    27   ar
    37     5     4    1
    38    26    27   ar
    39    26    25    1
    40    59    24    1
    41    27    62    1
    42    54    18    1
    43    25    61    1
    44    25    60    1
    45    18    19    1
    46    18     3    1
    47     1    48    2
    48     1    42   am
    49    24    19   ar
    50    24    23   ar
    51    58    23    1
    52    19    20   ar
    53    23    22   ar
    54     4     3    1
    55     4    49    1
    56     4    39    1
    57     3    42    1
    58     3    38    1
    59    49    71    1
    60    42     2    1
    61    20    55    1
    62    20    21   ar
    63    22    21   ar
    64    22    57    1
    65    21    56    1
    66    15     2    1
    67     2    16    1
    68     2     8    1
    69    46     9    1
    70     8     9   ar
    71     8    13   ar
    72     9    10   ar
    73    52    13    1
    74    13    12   ar
    75    47    10    1
    76    10    11   ar
    77    12    11   ar
    78    12    14    1
    79    11    51    1
    80    74    14    1
    81    14    73    1
    82    14    75    1
