@<TRIPOS>MOLECULE
Mol_93
 106 114 0 0 0
SMALL
GASTEIGER
Energy = 0

@<TRIPOS>ATOM
      1 C           2.8969   -4.9743   -0.0898 C.2     1  LIG11       0.3060
      2 C           2.3854   -5.5832    2.2149 C.3     1  LIG11       0.0416
      3 C           0.9718   -3.8634    0.9864 C.3     1  LIG11       0.0601
      4 C           1.1982   -2.3520    0.7384 C.3     1  LIG11       0.1016
      5 C           1.6668   -2.0576   -0.7121 C.3     1  LIG11       0.1016
      6 C           3.0441   -2.6942   -1.0197 C.3     1  LIG11       0.0601
      7 C           3.6125   -4.7488   -2.4057 C.3     1  LIG11       0.0416
      8 C           2.7609   -4.8039    3.4885 C.ar    1  LIG11      -0.0293
      9 C           1.9132   -4.8062    4.6029 C.ar    1  LIG11      -0.0449
     10 C           2.2894   -4.1701    5.7909 C.ar    1  LIG11       0.0374
     11 C           3.4749   -3.4312    5.8376 C.ar    1  LIG11      -0.0496
     12 C           4.3193   -3.4037    4.7244 C.ar    1  LIG11      -0.0607
     13 C           3.9738   -4.1082    3.5664 C.ar    1  LIG11      -0.0570
     14 C           1.4305   -4.3025    7.0309 C.2     1  LIG11       0.2504
     15 C           5.5686   -3.2055   -8.5097 C.ar    1  LIG11       0.2005
     16 N           6.6698   -2.5306   -8.3488 N.ar    1  LIG11      -0.3257
     17 C           7.1758   -2.3267   -9.5855 C.ar    1  LIG11       0.0674
     18 C          -0.1012   -4.4643    0.0327 C.3     1  LIG11      -0.0064
     19 C          -0.7031   -5.7798    0.5479 C.ar    1  LIG11      -0.0455
     20 C          -0.2178   -7.0201    0.1148 C.ar    1  LIG11      -0.0585
     21 C          -0.7894   -8.2053    0.5884 C.ar    1  LIG11      -0.0615
     22 C          -1.8459   -8.1580    1.5021 C.ar    1  LIG11      -0.0617
     23 C          -2.3378   -6.9228    1.9323 C.ar    1  LIG11      -0.0615
     24 C          -1.7680   -5.7394    1.4547 C.ar    1  LIG11      -0.0585
     25 C           4.1678   -2.2084   -0.0553 C.3     1  LIG11      -0.0064
     26 C           5.5806   -2.4115   -0.6309 C.ar    1  LIG11      -0.0455
     27 C           6.2929   -3.5898   -0.3771 C.ar    1  LIG11      -0.0585
     28 C           7.5934   -3.7519   -0.8652 C.ar    1  LIG11      -0.0615
     29 C           8.1888   -2.7414   -1.6251 C.ar    1  LIG11      -0.0617
     30 C           7.4779   -1.5697   -1.8972 C.ar    1  LIG11      -0.0615
     31 C           6.1791   -1.4090   -1.4045 C.ar    1  LIG11      -0.0585
     32 C           2.8380   -4.4013   -3.6920 C.ar    1  LIG11      -0.0293
     33 C           3.4986   -3.8335   -4.7874 C.ar    1  LIG11      -0.0449
     34 C           2.8257   -3.5990   -5.9938 C.ar    1  LIG11       0.0374
     35 C           1.4455   -3.8046   -6.0665 C.ar    1  LIG11      -0.0496
     36 C           0.7654   -4.3379   -4.9699 C.ar    1  LIG11      -0.0607
     37 C           1.4707   -4.6746   -3.8112 C.ar    1  LIG11      -0.0570
     38 C           3.5715   -3.1308   -7.2258 C.2     1  LIG11       0.2504
     39 C           6.3326   -2.9576  -10.4847 C.ar    1  LIG11       0.0907
     40 N           5.3346   -3.4466   -9.7330 N.ar    1  LIG11      -0.2143
     41 H           7.0493   -2.1783   -7.4616 H       1  LIG11       0.1686
     42 N           2.1606   -4.7264    1.0345 N.am    1  LIG11      -0.2752
     43 N           3.0700   -4.1548   -1.1691 N.am    1  LIG11      -0.2752
     44 N           1.1074   -5.5384    7.4670 N.am    1  LIG11      -0.2520
     45 C           0.3706   -5.8453    8.5544 C.ar    1  LIG11       0.2005
     46 N           4.8099   -3.5970   -7.4761 N.am    1  LIG11      -0.2520
     47 N           0.2790   -7.0563    9.0350 N.ar    1  LIG11      -0.3257
     48 O           3.4664   -6.0515   -0.1381 O.2     1  LIG11      -0.2524
     49 O          -0.0483   -1.6830    1.0244 O.3     1  LIG11      -0.3873
     50 O           1.7836   -0.6377   -0.9431 O.3     1  LIG11      -0.3873
     51 O           1.0945   -3.2820    7.6065 O.2     1  LIG11      -0.2698
     52 O           3.0335   -2.3098   -7.9491 O.2     1  LIG11      -0.2698
     53 C          -0.5111   -6.9792   10.1302 C.ar    1  LIG11       0.0674
     54 C          -0.9143   -5.6609   10.2527 C.ar    1  LIG11       0.0907
     55 N          -0.3061   -5.0211    9.2429 N.ar    1  LIG11      -0.2143
     56 C           6.5989   -3.0111  -11.8530 C.ar    1  LIG11      -0.0342
     57 H           3.2073   -6.3078    2.1101 H       1  LIG11       0.0514
     58 H           1.4753   -6.1802    2.3787 H       1  LIG11       0.0514
     59 H           0.4960   -3.8842    1.9829 H       1  LIG11       0.0531
     60 H           1.9417   -2.0050    1.4749 H       1  LIG11       0.0638
     61 H           0.9515   -2.4556   -1.4510 H       1  LIG11       0.0638
     62 H           3.3118   -2.2508   -1.9953 H       1  LIG11       0.0531
     63 H           3.6157   -5.8497   -2.4151 H       1  LIG11       0.0514
     64 H           4.6633   -4.4318   -2.4858 H       1  LIG11       0.0514
     65 H           0.9546   -5.3111    4.5553 H       1  LIG11       0.0628
     66 H           3.7444   -2.8924    6.7413 H       1  LIG11       0.0625
     67 H           5.2481   -2.8410    4.7649 H       1  LIG11       0.0618
     68 H           4.6633   -4.1220    2.7300 H       1  LIG11       0.0621
     69 C           7.7524   -2.3351  -12.2762 C.ar    1  LIG11      -0.0596
     70 H           0.3587   -4.6626   -0.9345 H       1  LIG11       0.0332
     71 H          -0.9288   -3.7576   -0.1384 H       1  LIG11       0.0332
     72 H           0.6035   -7.0721   -0.5935 H       1  LIG11       0.0620
     73 H          -0.4137   -9.1651    0.2462 H       1  LIG11       0.0618
     74 H          -2.2846   -9.0780    1.8769 H       1  LIG11       0.0618
     75 H          -3.1634   -6.8820    2.6363 H       1  LIG11       0.0618
     76 H          -2.1608   -4.7846    1.7897 H       1  LIG11       0.0620
     77 H           4.1028   -2.7486    0.8959 H       1  LIG11       0.0332
     78 H           4.0469   -1.1373    0.1718 H       1  LIG11       0.0332
     79 H           5.8397   -4.3872    0.2031 H       1  LIG11       0.0620
     80 H           8.1439   -4.6636   -0.6532 H       1  LIG11       0.0618
     81 H           9.1999   -2.8658   -2.0023 H       1  LIG11       0.0618
     82 H           7.9370   -0.7840   -2.4902 H       1  LIG11       0.0618
     83 H           5.6385   -0.4939   -1.6249 H       1  LIG11       0.0620
     84 H           4.5473   -3.5752   -4.6968 H       1  LIG11       0.0628
     85 H           0.9051   -3.5615   -6.9764 H       1  LIG11       0.0625
     86 H          -0.3076   -4.4994   -5.0241 H       1  LIG11       0.0618
     87 H           0.9441   -5.1687   -3.0104 H       1  LIG11       0.0621
     88 H           0.7418   -7.9022    8.6799 H       1  LIG11       0.1686
     89 C          -0.9038   -7.9612   11.0375 C.ar    1  LIG11      -0.0362
     90 C           8.5871   -1.6564  -11.3697 C.ar    1  LIG11      -0.0597
     91 H           1.4917   -6.3064    6.9626 H       1  LIG11       0.1580
     92 H           5.2533   -4.2200   -6.8401 H       1  LIG11       0.1580
     93 H           0.0267   -0.7356    1.0837 H       1  LIG11       0.2100
     94 H           0.9471   -0.1831   -0.9765 H       1  LIG11       0.2100
     95 C          -1.7582   -7.5449   12.0685 C.ar    1  LIG11      -0.0597
     96 C           8.3134   -1.6347   -9.9951 C.ar    1  LIG11      -0.0362
     97 C          -2.1899   -6.2101   12.1725 C.ar    1  LIG11      -0.0596
     98 C          -1.7769   -5.2286   11.2601 C.ar    1  LIG11      -0.0342
     99 H           5.9538   -3.5477  -12.5396 H       1  LIG11       0.0639
    100 H           8.0084   -2.3346  -13.3315 H       1  LIG11       0.0618
    101 H          -0.5622   -8.9867   10.9485 H       1  LIG11       0.0639
    102 H           9.4656   -1.1364  -11.7392 H       1  LIG11       0.0618
    103 H          -2.0925   -8.2723   12.8021 H       1  LIG11       0.0618
    104 H           8.9442   -1.1107   -9.2857 H       1  LIG11       0.0639
    105 H          -2.8600   -5.9328   12.9809 H       1  LIG11       0.0618
    106 H          -2.1044   -4.1973   11.3258 H       1  LIG11       0.0639
@<TRIPOS>BOND
     1   100    69    1
     2    99    56    1
     3    69    56   ar
     4    69    90   ar
     5    56    39   ar
     6   102    90    1
     7    90    96   ar
     8    39    40   ar
     9    39    17   ar
    10    96    17   ar
    11    96   104    1
    12    40    15   ar
    13    17    16   ar
    14    15    16   ar
    15    15    46    1
    16    16    41    1
    17    52    38    2
    18    46    38   am
    19    46    92    1
    20    38    34    1
    21    85    35    1
    22    35    34   ar
    23    35    36   ar
    24    34    33   ar
    25    86    36    1
    26    36    37   ar
    27    33    84    1
    28    33    32   ar
    29    37    32   ar
    30    37    87    1
    31    32     7    1
    32    82    30    1
    33    64     7    1
    34    63     7    1
    35     7    43    1
    36    81    29    1
    37    62     6    1
    38    30    29   ar
    39    30    31   ar
    40    29    28   ar
    41    83    31    1
    42    61     5    1
    43    31    26   ar
    44    43     6    1
    45    43     1   am
    46     6     5    1
    47     6    25    1
    48    94    50    1
    49    50     5    1
    50    70    18    1
    51    28    80    1
    52    28    27   ar
    53     5     4    1
    54    26    27   ar
    55    26    25    1
    56    72    20    1
    57    27    79    1
    58    71    18    1
    59    48     1    2
    60     1    42   am
    61    25    78    1
    62    25    77    1
    63    18    19    1
    64    18     3    1
    65    20    19   ar
    66    20    21   ar
    67    73    21    1
    68    19    24   ar
    69    21    22   ar
    70     4     3    1
    71     4    49    1
    72     4    60    1
    73     3    42    1
    74     3    59    1
    75    49    93    1
    76    42     2    1
    77    24    76    1
    78    24    23   ar
    79    22    74    1
    80    22    23   ar
    81    23    75    1
    82    57     2    1
    83     2    58    1
    84     2     8    1
    85    68    13    1
    86     8    13   ar
    87     8     9   ar
    88    13    12   ar
    89    65     9    1
    90     9    10   ar
    91    12    67    1
    92    12    11   ar
    93    10    11   ar
    94    10    14    1
    95    11    66    1
    96    91    44    1
    97    14    44   am
    98    14    51    2
    99    44    45    1
   100    45    47   ar
   101    45    55   ar
   102    88    47    1
   103    47    53   ar
   104    55    54   ar
   105    53    54   ar
   106    53    89   ar
   107    54    98   ar
   108   101    89    1
   109    89    95   ar
   110    98   106    1
   111    98    97   ar
   112    95    97   ar
   113    95   103    1
   114    97   105    1
