@<TRIPOS>MOLECULE
Mol_62
 79 84 0 0 0
SMALL
GASTEIGER
Energy = 0

@<TRIPOS>ATOM
      1 C           1.8027   -5.0433    1.0120 C.2     1  LIG11       0.3060
      2 C           2.8638   -5.4969   -1.1157 C.3     1  LIG11       0.0416
      3 C           2.5512   -3.0891   -0.2939 C.3     1  LIG11       0.0601
      4 C           1.2863   -2.2208   -0.4932 C.3     1  LIG11       0.1016
      5 C           0.4582   -2.1106    0.8134 C.3     1  LIG11       0.1016
      6 C          -0.0570   -3.4734    1.3280 C.3     1  LIG11       0.0601
      7 C           0.8342   -4.9051    3.2513 C.3     1  LIG11       0.0417
      8 C           2.7718   -4.9349   -2.5427 C.ar    1  LIG11      -0.0295
      9 C           3.9180   -4.5113   -3.2236 C.ar    1  LIG11      -0.0493
     10 C           3.8174   -3.9100   -4.4852 C.ar    1  LIG11      -0.0176
     11 C           2.5577   -3.7371   -5.0735 C.ar    1  LIG11      -0.0179
     12 C           1.4145   -4.1918   -4.4085 C.ar    1  LIG11      -0.0537
     13 C           1.5242   -4.8152   -3.1621 C.ar    1  LIG11      -0.0565
     14 C           4.9642   -3.4766   -5.1595 C.ar    1  LIG11      -0.0540
     15 C           4.8588   -2.8687   -6.4144 C.ar    1  LIG11      -0.0612
     16 C           3.6018   -2.6831   -6.9947 C.ar    1  LIG11      -0.0612
     17 C           2.4543   -3.1117   -6.3234 C.ar    1  LIG11      -0.0540
     18 C           3.5303   -2.5276    0.7825 C.3     1  LIG11      -0.0064
     19 C           4.9894   -2.5009    0.2964 C.ar    1  LIG11      -0.0455
     20 C           5.5113   -1.3199   -0.2457 C.ar    1  LIG11      -0.0585
     21 C           6.8363   -1.2632   -0.6843 C.ar    1  LIG11      -0.0615
     22 C           7.6474   -2.3969   -0.5948 C.ar    1  LIG11      -0.0617
     23 C           7.1307   -3.5817   -0.0620 C.ar    1  LIG11      -0.0615
     24 C           5.8067   -3.6332    0.3867 C.ar    1  LIG11      -0.0585
     25 C          -1.0367   -4.1930    0.3535 C.3     1  LIG11      -0.0064
     26 C          -1.4440   -5.5778    0.8804 C.ar    1  LIG11      -0.0455
     27 C          -2.4169   -5.7016    1.8785 C.ar    1  LIG11      -0.0585
     28 C          -2.7954   -6.9651    2.3433 C.ar    1  LIG11      -0.0615
     29 C          -2.2022   -8.1152    1.8150 C.ar    1  LIG11      -0.0617
     30 C          -1.2290   -7.9989    0.8199 C.ar    1  LIG11      -0.0615
     31 C          -0.8525   -6.7352    0.3585 C.ar    1  LIG11      -0.0585
     32 C           1.8257   -4.2322    4.2226 C.ar    1  LIG11      -0.0266
     33 C           3.2060   -4.3565    4.0217 C.ar    1  LIG11      -0.0155
     34 C           4.1187   -3.7510    4.8943 C.ar    1  LIG11       0.1172
     35 C           3.6543   -3.0812    6.0278 C.ar    1  LIG11      -0.0202
     36 C           2.2806   -2.9594    6.2485 C.ar    1  LIG11      -0.0580
     37 C           1.3742   -3.5098    5.3364 C.ar    1  LIG11      -0.0568
     38 H           2.3114   -6.4510   -1.1224 H       1  LIG11       0.0514
     39 H           3.9046   -5.7280   -0.8450 H       1  LIG11       0.0514
     40 H           3.0920   -2.9017   -1.2347 H       1  LIG11       0.0531
     41 H           0.7038   -2.6627   -1.3179 H       1  LIG11       0.0638
     42 N           2.3102   -4.5358   -0.1472 N.am    1  LIG11      -0.2752
     43 N           0.9399   -4.4132    1.8602 N.am    1  LIG11      -0.2752
     44 H           1.0778   -1.7020    1.6289 H       1  LIG11       0.0638
     45 H          -0.7050   -3.1537    2.1628 H       1  LIG11       0.0531
     46 H           1.0006   -5.9895    3.3281 H       1  LIG11       0.0514
     47 H          -0.1861   -4.7626    3.6381 H       1  LIG11       0.0514
     48 O           2.1595   -6.1721    1.3064 O.2     1  LIG11      -0.2524
     49 O           1.7023   -0.9126   -0.9312 O.3     1  LIG11      -0.3873
     50 O          -0.6930   -1.2566    0.6406 O.3     1  LIG11      -0.3873
     51 H           4.8926   -4.6396   -2.7638 H       1  LIG11       0.0627
     52 H           0.4318   -4.0647   -4.8526 H       1  LIG11       0.0624
     53 H           0.6349   -5.1997   -2.6749 H       1  LIG11       0.0621
     54 H           5.9471   -3.6063   -4.7167 H       1  LIG11       0.0624
     55 H           5.7521   -2.5410   -6.9371 H       1  LIG11       0.0618
     56 H           3.5177   -2.2064   -7.9670 H       1  LIG11       0.0618
     57 H           1.4828   -2.9552   -6.7818 H       1  LIG11       0.0624
     58 H           3.4618   -3.1080    1.7065 H       1  LIG11       0.0332
     59 H           3.2810   -1.4901    1.0443 H       1  LIG11       0.0332
     60 H           4.8905   -0.4332   -0.3313 H       1  LIG11       0.0620
     61 H           7.2325   -0.3386   -1.0935 H       1  LIG11       0.0618
     62 H           8.6763   -2.3542   -0.9389 H       1  LIG11       0.0618
     63 H           7.7622   -4.4625    0.0033 H       1  LIG11       0.0618
     64 H           5.4171   -4.5551    0.8059 H       1  LIG11       0.0620
     65 H          -0.5822   -4.3529   -0.6293 H       1  LIG11       0.0332
     66 H          -1.9430   -3.5851    0.1951 H       1  LIG11       0.0332
     67 H          -2.8847   -4.8154    2.2947 H       1  LIG11       0.0620
     68 H          -3.5530   -7.0556    3.1156 H       1  LIG11       0.0618
     69 H          -2.4954   -9.0968    2.1747 H       1  LIG11       0.0618
     70 H          -0.7655   -8.8885    0.4037 H       1  LIG11       0.0618
     71 H          -0.0949   -6.6661   -0.4138 H       1  LIG11       0.0620
     72 H           3.5788   -4.9376    3.1866 H       1  LIG11       0.0657
     73 H           4.3640   -2.6577    6.7317 H       1  LIG11       0.0654
     74 H           1.9205   -2.4375    7.1307 H       1  LIG11       0.0619
     75 H           0.3122   -3.3743    5.5136 H       1  LIG11       0.0621
     76 H           0.9691   -0.3572   -1.1778 H       1  LIG11       0.2100
     77 H          -0.4957   -0.3255    0.6870 H       1  LIG11       0.2100
     78 O           5.4915   -3.8119    4.6527 O.3     1  LIG11      -0.5068
     79 H           5.7025   -3.6674    3.7371 H       1  LIG11       0.2921
@<TRIPOS>BOND
     1    56    16    1
     2    16    15   ar
     3    16    17   ar
     4    55    15    1
     5    57    17    1
     6    15    14   ar
     7    17    11   ar
     8    14    54    1
     9    14    10   ar
    10    11    10   ar
    11    11    12   ar
    12    52    12    1
    13    10     9   ar
    14    12    13   ar
    15     9    51    1
    16     9     8   ar
    17    13    53    1
    18    13     8   ar
    19     8     2    1
    20    41     4    1
    21    40     3    1
    22    76    49    1
    23    38     2    1
    24     2    39    1
    25     2    42    1
    26    61    21    1
    27    62    22    1
    28    49     4    1
    29    21    22   ar
    30    21    20   ar
    31    65    25    1
    32    22    23   ar
    33     4     3    1
    34     4     5    1
    35    71    31    1
    36    60    20    1
    37     3    42    1
    38     3    18    1
    39    20    19   ar
    40    42     1   am
    41    23    63    1
    42    23    24   ar
    43    66    25    1
    44    19    24   ar
    45    19    18    1
    46    25    26    1
    47    25     6    1
    48    31    30   ar
    49    31    26   ar
    50    24    64    1
    51    70    30    1
    52    50    77    1
    53    50     5    1
    54    18    59    1
    55    18    58    1
    56     5     6    1
    57     5    44    1
    58    30    29   ar
    59    26    27   ar
    60     1    48    2
    61     1    43   am
    62     6    43    1
    63     6    45    1
    64    29    69    1
    65    29    28   ar
    66    43     7    1
    67    27    67    1
    68    27    28   ar
    69    28    68    1
    70    72    33    1
    71     7    46    1
    72     7    47    1
    73     7    32    1
    74    79    78    1
    75    33    32   ar
    76    33    34   ar
    77    32    37   ar
    78    78    34    1
    79    34    35   ar
    80    37    75    1
    81    37    36   ar
    82    35    36   ar
    83    35    73    1
    84    36    74    1
