@<TRIPOS>MOLECULE
Mol_91
 98 104 0 0 0
SMALL
GASTEIGER
Energy = 0

@<TRIPOS>ATOM
      1 C           2.9151   -4.9182    0.0467 C.2     1  LIG11       0.3060
      2 C           2.3462   -5.5380    2.3297 C.3     1  LIG11       0.0416
      3 C           0.8504   -3.9676    1.0061 C.3     1  LIG11       0.0601
      4 C           0.9653   -2.4448    0.7582 C.3     1  LIG11       0.1016
      5 C           1.4883   -2.1150   -0.6658 C.3     1  LIG11       0.1016
      6 C           2.9268   -2.6393   -0.9053 C.3     1  LIG11       0.0601
      7 C           3.7321   -4.6584   -2.2205 C.3     1  LIG11       0.0416
      8 C           2.5581   -4.7151    3.6139 C.ar    1  LIG11      -0.0293
      9 C           1.7021   -4.8750    4.7063 C.ar    1  LIG11      -0.0449
     10 C           1.9620   -4.2209    5.9182 C.ar    1  LIG11       0.0374
     11 C           2.9782   -3.2657    5.9945 C.ar    1  LIG11      -0.0496
     12 C           3.8106   -3.0617    4.8931 C.ar    1  LIG11      -0.0607
     13 C           3.6300   -3.8211    3.7321 C.ar    1  LIG11      -0.0570
     14 C           1.1728   -4.5738    7.1562 C.2     1  LIG11       0.2497
     15 C           6.0754   -3.8606   -8.2764 C.ar    1  LIG11       0.1648
     16 S           5.8149   -2.5000   -9.3759 S.2     1  LIG11      -0.0573
     17 C           7.2215   -3.1304  -10.2693 C.ar    1  LIG11       0.0080
     18 C          -0.1199   -4.6655    0.0095 C.3     1  LIG11      -0.0064
     19 C          -0.7252   -5.9666    0.5511 C.ar    1  LIG11      -0.0455
     20 C          -0.1450   -7.2104    0.2720 C.ar    1  LIG11      -0.0585
     21 C          -0.7184   -8.3821    0.7754 C.ar    1  LIG11      -0.0615
     22 C          -1.8721   -8.3155    1.5616 C.ar    1  LIG11      -0.0617
     23 C          -2.4604   -7.0771    1.8317 C.ar    1  LIG11      -0.0615
     24 C          -1.8892   -5.9074    1.3242 C.ar    1  LIG11      -0.0585
     25 C           3.9600   -2.0560    0.1026 C.3     1  LIG11      -0.0064
     26 C           5.4220   -2.2005   -0.3579 C.ar    1  LIG11      -0.0455
     27 C           6.0806   -1.1187   -0.9554 C.ar    1  LIG11      -0.0585
     28 C           7.4090   -1.2357   -1.3753 C.ar    1  LIG11      -0.0615
     29 C           8.0906   -2.4442   -1.2116 C.ar    1  LIG11      -0.0617
     30 C           7.4436   -3.5274   -0.6109 C.ar    1  LIG11      -0.0615
     31 C           6.1210   -3.4003   -0.1743 C.ar    1  LIG11      -0.0585
     32 C           3.0558   -4.2772   -3.5438 C.ar    1  LIG11      -0.0293
     33 C           3.8404   -3.8530   -4.6169 C.ar    1  LIG11      -0.0449
     34 C           3.2428   -3.6111   -5.8548 C.ar    1  LIG11       0.0374
     35 C           1.8544   -3.6140   -6.0037 C.ar    1  LIG11      -0.0496
     36 C           1.0592   -3.9911   -4.9236 C.ar    1  LIG11      -0.0607
     37 C           1.6711   -4.3650   -3.7255 C.ar    1  LIG11      -0.0570
     38 C           4.1021   -3.3512   -7.0628 C.2     1  LIG11       0.2497
     39 C           7.7854   -4.2355   -9.7592 C.ar    1  LIG11       0.0397
     40 N           7.0575   -4.5965   -8.5704 N.ar    1  LIG11      -0.2327
     41 H           8.6409   -4.7798  -10.1563 H       1  LIG11       0.0838
     42 N           2.1059   -4.7202    1.1280 N.am    1  LIG11      -0.2752
     43 N           3.0790   -4.0946   -1.0289 N.am    1  LIG11      -0.2752
     44 N           0.9517   -5.8781    7.4090 N.am    1  LIG11      -0.2607
     45 C           0.3218   -6.4075    8.4712 C.ar    1  LIG11       0.1648
     46 N           5.2508   -4.0406   -7.2335 N.am    1  LIG11      -0.2607
     47 S           0.1881   -8.1707    8.5405 S.2     1  LIG11      -0.0573
     48 O           3.5670   -5.9490    0.0360 O.2     1  LIG11      -0.2524
     49 O          -0.3496   -1.8892    0.9744 O.3     1  LIG11      -0.3873
     50 O           1.5060   -0.6889   -0.8850 O.3     1  LIG11      -0.3873
     51 O           0.7910   -3.6717    7.8844 O.2     1  LIG11      -0.2698
     52 O           3.6690   -2.5262   -7.8483 O.2     1  LIG11      -0.2698
     53 C          -0.6492   -7.8996   10.1042 C.ar    1  LIG11       0.0080
     54 C          -0.7841   -6.6151   10.4688 C.ar    1  LIG11       0.0397
     55 N          -0.1869   -5.7925    9.4481 N.ar    1  LIG11      -0.2327
     56 H          -1.2581   -6.2386   11.3749 H       1  LIG11       0.0838
     57 H           3.2482   -6.1670    2.2848 H       1  LIG11       0.0514
     58 H           1.4958   -6.2286    2.4386 H       1  LIG11       0.0514
     59 H           0.3255   -4.0214    1.9758 H       1  LIG11       0.0531
     60 H           1.6361   -2.0355    1.5313 H       1  LIG11       0.0638
     61 H           0.8411   -2.5683   -1.4348 H       1  LIG11       0.0638
     62 H           3.2105   -2.1814   -1.8697 H       1  LIG11       0.0531
     63 H           3.7431   -5.7588   -2.2553 H       1  LIG11       0.0514
     64 H           4.7800   -4.3254   -2.2208 H       1  LIG11       0.0514
     65 H           0.8345   -5.5210    4.6228 H       1  LIG11       0.0628
     66 H           3.1282   -2.7029    6.9115 H       1  LIG11       0.0625
     67 H           4.6046   -2.3224    4.9472 H       1  LIG11       0.0618
     68 H           4.3443   -3.7229    2.9272 H       1  LIG11       0.0621
     69 C           7.6427   -2.3771  -11.4920 C.3     1  LIG11      -0.0319
     70 H           0.4327   -4.9295   -0.8873 H       1  LIG11       0.0332
     71 H          -0.9470   -4.0023   -0.2907 H       1  LIG11       0.0332
     72 H           0.7513   -7.2760   -0.3380 H       1  LIG11       0.0620
     73 H          -0.2682   -9.3456    0.5556 H       1  LIG11       0.0618
     74 H          -2.3117   -9.2239    1.9618 H       1  LIG11       0.0618
     75 H          -3.3615   -7.0221    2.4346 H       1  LIG11       0.0618
     76 H          -2.3567   -4.9497    1.5307 H       1  LIG11       0.0620
     77 H           3.8621   -2.5763    1.0564 H       1  LIG11       0.0332
     78 H           3.7521   -0.9915    0.2934 H       1  LIG11       0.0332
     79 H           5.5649   -0.1741   -1.0946 H       1  LIG11       0.0620
     80 H           7.9126   -0.3869   -1.8283 H       1  LIG11       0.0618
     81 H           9.1186   -2.5399   -1.5488 H       1  LIG11       0.0618
     82 H           7.9713   -4.4681   -0.4835 H       1  LIG11       0.0618
     83 H           5.6404   -4.2450    0.3079 H       1  LIG11       0.0620
     84 H           4.9099   -3.7144   -4.4967 H       1  LIG11       0.0628
     85 H           1.3984   -3.3392   -6.9503 H       1  LIG11       0.0625
     86 H          -0.0225   -4.0030   -5.0209 H       1  LIG11       0.0618
     87 H           1.0460   -4.7404   -2.9413 H       1  LIG11       0.0621
     88 H           6.7988   -2.3613  -12.1982 H       1  LIG11       0.0283
     89 H           8.5223   -2.8255  -11.9720 H       1  LIG11       0.0283
     90 H           7.8719   -1.3443  -11.1882 H       1  LIG11       0.0283
     91 H           1.3239   -6.5398    6.7635 H       1  LIG11       0.1571
     92 H           5.5088   -4.7688   -6.6008 H       1  LIG11       0.1571
     93 H          -0.3632   -0.9408    1.0572 H       1  LIG11       0.2100
     94 H           0.6399   -0.2956   -0.9276 H       1  LIG11       0.2100
     95 C          -1.1276   -9.0951   10.8749 C.3     1  LIG11      -0.0319
     96 H          -1.8442   -9.6487   10.2498 H       1  LIG11       0.0283
     97 H          -1.6107   -8.8130   11.8210 H       1  LIG11       0.0283
     98 H          -0.2642   -9.7439   11.0856 H       1  LIG11       0.0283
@<TRIPOS>BOND
     1    88    69    1
     2    89    69    1
     3    69    90    1
     4    69    17    1
     5    17    39   ar
     6    17    16   ar
     7    41    39    1
     8    39    40   ar
     9    16    15   ar
    10    40    15   ar
    11    15    46    1
    12    52    38    2
    13    46    38   am
    14    46    92    1
    15    38    34    1
    16    85    35    1
    17    35    34   ar
    18    35    36   ar
    19    34    33   ar
    20    86    36    1
    21    36    37   ar
    22    33    84    1
    23    33    32   ar
    24    37    32   ar
    25    37    87    1
    26    32     7    1
    27    63     7    1
    28    64     7    1
    29     7    43    1
    30    62     6    1
    31    80    28    1
    32    81    29    1
    33    61     5    1
    34    28    29   ar
    35    28    27   ar
    36    29    30   ar
    37    79    27    1
    38    43     6    1
    39    43     1   am
    40    27    26   ar
    41    94    50    1
    42     6     5    1
    43     6    25    1
    44    70    18    1
    45    50     5    1
    46     5     4    1
    47    30    82    1
    48    30    31   ar
    49    26    31   ar
    50    26    25    1
    51    72    20    1
    52    71    18    1
    53    31    83    1
    54    18    19    1
    55    18     3    1
    56    48     1    2
    57     1    42   am
    58    25    78    1
    59    25    77    1
    60    20    19   ar
    61    20    21   ar
    62    19    24   ar
    63    73    21    1
    64     4    49    1
    65     4     3    1
    66     4    60    1
    67    21    22   ar
    68    49    93    1
    69     3    42    1
    70     3    59    1
    71    42     2    1
    72    24    76    1
    73    24    23   ar
    74    22    23   ar
    75    22    74    1
    76    23    75    1
    77    57     2    1
    78     2    58    1
    79     2     8    1
    80    68    13    1
    81     8    13   ar
    82     8     9   ar
    83    13    12   ar
    84    65     9    1
    85     9    10   ar
    86    12    67    1
    87    12    11   ar
    88    10    11   ar
    89    10    14    1
    90    11    66    1
    91    91    44    1
    92    14    44   am
    93    14    51    2
    94    44    45    1
    95    45    47   ar
    96    45    55   ar
    97    47    53   ar
    98    55    54   ar
    99    53    54   ar
   100    53    95    1
   101    96    95    1
   102    54    56    1
   103    95    98    1
   104    95    97    1
