@<TRIPOS>MOLECULE
Mol_108
 91 97 0 0 0
SMALL
GASTEIGER
Energy = 0

@<TRIPOS>ATOM
      1 C           3.1139   -4.9160   -0.3083 C.2     1  LIG11       0.3060
      2 C           2.5767   -5.5609    1.9801 C.3     1  LIG11       0.0416
      3 C           1.0835   -3.9467    0.6913 C.3     1  LIG11       0.0601
      4 C           1.1776   -2.4237    0.4265 C.3     1  LIG11       0.1016
      5 C           1.6956   -2.1117   -1.0026 C.3     1  LIG11       0.1016
      6 C           3.1430   -2.6212   -1.2112 C.3     1  LIG11       0.0601
      7 C           3.8676   -4.6281   -2.5970 C.3     1  LIG11       0.0416
      8 C           2.9709   -4.8341    3.2809 C.ar    1  LIG11      -0.0293
      9 C           2.1245   -4.8771    4.3953 C.ar    1  LIG11      -0.0449
     10 C           2.5521   -4.3962    5.6367 C.ar    1  LIG11       0.0374
     11 C           3.7614   -3.7031    5.7362 C.ar    1  LIG11      -0.0496
     12 C           4.5880   -3.5958    4.6142 C.ar    1  LIG11      -0.0607
     13 C           4.1969   -4.1656    3.3970 C.ar    1  LIG11      -0.0570
     14 C           1.7181   -4.6573    6.8718 C.2     1  LIG11       0.2504
     15 N          -0.0263   -4.0275   -5.5797 N.pl3   1  LIG11      -0.3580
     16 C           0.6649   -6.2534    8.2657 C.ar    1  LIG11       0.2005
     17 N           0.6148   -7.4264    8.7457 N.ar    1  LIG11      -0.2143
     18 C           0.1025   -4.6507   -0.2973 C.3     1  LIG11      -0.0064
     19 C          -0.5607   -5.9079    0.2882 C.ar    1  LIG11      -0.0455
     20 C          -0.1098   -7.1892   -0.0512 C.ar    1  LIG11      -0.0585
     21 C          -0.7555   -8.3224    0.4536 C.ar    1  LIG11      -0.0615
     22 C          -1.8452   -8.1828    1.3174 C.ar    1  LIG11      -0.0617
     23 C          -2.2912   -6.9067    1.6709 C.ar    1  LIG11      -0.0615
     24 C          -1.6488   -5.7754    1.1590 C.ar    1  LIG11      -0.0585
     25 C           4.1577   -2.0612   -0.1719 C.3     1  LIG11      -0.0064
     26 C           5.6207   -2.2385   -0.6135 C.ar    1  LIG11      -0.0455
     27 C           6.2957   -3.4388   -0.3613 C.ar    1  LIG11      -0.0585
     28 C           7.6374   -3.5904   -0.7234 C.ar    1  LIG11      -0.0615
     29 C           8.3155   -2.5427   -1.3517 C.ar    1  LIG11      -0.0617
     30 C           7.6456   -1.3459   -1.6192 C.ar    1  LIG11      -0.0615
     31 C           6.3032   -1.1981   -1.2565 C.ar    1  LIG11      -0.0585
     32 C           3.2288   -4.0434   -3.8672 C.ar    1  LIG11      -0.0283
     33 C           3.9839   -3.2709   -4.7563 C.ar    1  LIG11      -0.0570
     34 C           3.4021   -2.7771   -5.9266 C.ar    1  LIG11      -0.0597
     35 C           2.0542   -3.0246   -6.1999 C.ar    1  LIG11      -0.0410
     36 C           1.2813   -3.7830   -5.3134 C.ar    1  LIG11       0.0248
     37 C           1.8805   -4.2880   -4.1529 C.ar    1  LIG11      -0.0364
     38 C          -0.1385   -7.4340    9.8527 C.ar    1  LIG11       0.0907
     39 C          -0.6222   -6.1413    9.9579 C.ar    1  LIG11       0.0674
     40 H          -0.4851   -3.5951   -6.3958 H       1  LIG11       0.1423
     41 H          -0.5775   -4.6572   -4.9776 H       1  LIG11       0.1423
     42 N           2.3356   -4.7122    0.7958 N.am    1  LIG11      -0.2752
     43 N           3.2746   -4.0738   -1.3689 N.am    1  LIG11      -0.2752
     44 N           1.3823   -5.9258    7.1788 N.am    1  LIG11      -0.2520
     45 C          -1.5362   -5.7831   10.9475 C.ar    1  LIG11      -0.0362
     46 C          -1.8939   -6.7910   11.8557 C.ar    1  LIG11      -0.0597
     47 C          -1.3396   -8.0821   11.7844 C.ar    1  LIG11      -0.0596
     48 O           3.7304   -5.9669   -0.3653 O.2     1  LIG11      -0.2524
     49 O          -0.1407   -1.8749    0.6462 O.3     1  LIG11      -0.3873
     50 O           1.6795   -0.6910   -1.2494 O.3     1  LIG11      -0.3873
     51 O           1.4000   -3.7215    7.5875 O.2     1  LIG11      -0.2698
     52 C          -0.4319   -8.4358   10.7771 C.ar    1  LIG11      -0.0342
     53 H           3.3963   -6.2850    1.8600 H       1  LIG11       0.0514
     54 H           1.6725   -6.1666    2.1438 H       1  LIG11       0.0514
     55 H           0.5824   -3.9825    1.6745 H       1  LIG11       0.0531
     56 N          -0.0543   -5.4189    8.9629 N.ar    1  LIG11      -0.3257
     57 H           1.8426   -1.9885    1.1899 H       1  LIG11       0.0638
     58 H           1.0674   -2.5950   -1.7704 H       1  LIG11       0.0638
     59 H           3.4511   -2.1402   -2.1558 H       1  LIG11       0.0531
     60 H           3.7301   -5.7172   -2.6969 H       1  LIG11       0.0514
     61 H           4.9512   -4.4369   -2.5782 H       1  LIG11       0.0514
     62 H           1.1286   -5.2977    4.3092 H       1  LIG11       0.0628
     63 H           4.0619   -3.2641    6.6835 H       1  LIG11       0.0625
     64 H           5.5398   -3.0774    4.6952 H       1  LIG11       0.0618
     65 H           4.8627   -4.0978    2.5439 H       1  LIG11       0.0621
     66 H           0.6350   -4.9280   -1.2142 H       1  LIG11       0.0332
     67 H          -0.7186   -3.9779   -0.5912 H       1  LIG11       0.0332
     68 H           0.7418   -7.3130   -0.7129 H       1  LIG11       0.0620
     69 H          -0.4118   -9.3137    0.1736 H       1  LIG11       0.0618
     70 H          -2.3444   -9.0627    1.7126 H       1  LIG11       0.0618
     71 H          -3.1382   -6.7948    2.3414 H       1  LIG11       0.0618
     72 H          -2.0051   -4.7888    1.4386 H       1  LIG11       0.0620
     73 H           4.0439   -2.5679    0.7947 H       1  LIG11       0.0332
     74 H           3.9663   -0.9884   -0.0093 H       1  LIG11       0.0332
     75 H           5.7826   -4.2635    0.1204 H       1  LIG11       0.0620
     76 H           8.1539   -4.5226   -0.5155 H       1  LIG11       0.0618
     77 H           9.3587   -2.6582   -1.6306 H       1  LIG11       0.0618
     78 H           8.1705   -0.5304   -2.1081 H       1  LIG11       0.0618
     79 H           5.7960   -0.2639   -1.4756 H       1  LIG11       0.0620
     80 H           5.0257   -3.0508   -4.5467 H       1  LIG11       0.0621
     81 H           3.9996   -2.2009   -6.6264 H       1  LIG11       0.0618
     82 H           1.6141   -2.6250   -7.1078 H       1  LIG11       0.0636
     83 H           1.2934   -4.8827   -3.4661 H       1  LIG11       0.0639
     84 H           1.7312   -6.6810    6.6285 H       1  LIG11       0.1580
     85 H          -1.9494   -4.7823   11.0024 H       1  LIG11       0.0639
     86 H          -2.6181   -6.5676   12.6330 H       1  LIG11       0.0618
     87 H          -1.6214   -8.8240   12.5258 H       1  LIG11       0.0618
     88 H          -0.1605   -0.9274    0.7414 H       1  LIG11       0.2100
     89 H           0.8009   -0.3258   -1.2923 H       1  LIG11       0.2100
     90 H           0.0218   -9.4189   10.7172 H       1  LIG11       0.0639
     91 H          -0.1758   -4.4132    8.7728 H       1  LIG11       0.1686
@<TRIPOS>BOND
     1    82    35    1
     2    81    34    1
     3    40    15    1
     4    35    34   ar
     5    35    36   ar
     6    34    33   ar
     7    15    36    1
     8    15    41    1
     9    36    37   ar
    10    33    80    1
    11    33    32   ar
    12    37    32   ar
    13    37    83    1
    14    32     7    1
    15    60     7    1
    16     7    61    1
    17     7    43    1
    18    59     6    1
    19    78    30    1
    20    58     5    1
    21    77    29    1
    22    30    29   ar
    23    30    31   ar
    24    79    31    1
    25    43     6    1
    26    43     1   am
    27    29    28   ar
    28    89    50    1
    29    31    26   ar
    30    50     5    1
    31    66    18    1
    32     6     5    1
    33     6    25    1
    34     5     4    1
    35    28    76    1
    36    28    27   ar
    37    68    20    1
    38    26    27   ar
    39    26    25    1
    40    67    18    1
    41    48     1    2
    42    27    75    1
    43     1    42   am
    44    18    19    1
    45    18     3    1
    46    25    74    1
    47    25    73    1
    48    20    19   ar
    49    20    21   ar
    50    69    21    1
    51    19    24   ar
    52     4    49    1
    53     4     3    1
    54     4    57    1
    55    21    22   ar
    56    49    88    1
    57     3    42    1
    58     3    55    1
    59    42     2    1
    60    24    72    1
    61    24    23   ar
    62    22    23   ar
    63    22    70    1
    64    23    71    1
    65    53     2    1
    66     2    54    1
    67     2     8    1
    68    65    13    1
    69     8    13   ar
    70     8     9   ar
    71    13    12   ar
    72    62     9    1
    73     9    10   ar
    74    12    64    1
    75    12    11   ar
    76    10    11   ar
    77    10    14    1
    78    11    63    1
    79    84    44    1
    80    14    44   am
    81    14    51    2
    82    44    16    1
    83    16    17   ar
    84    16    56   ar
    85    17    38   ar
    86    91    56    1
    87    56    39   ar
    88    38    39   ar
    89    38    52   ar
    90    39    45   ar
    91    90    52    1
    92    52    47   ar
    93    45    85    1
    94    45    46   ar
    95    47    46   ar
    96    47    87    1
    97    46    86    1
