@<TRIPOS>MOLECULE
CPD_06-b
 71 74 0 0 0
SMALL
GASTEIGER

@<TRIPOS>ATOM
      1 C1          3.9949   -6.2333   15.1752 C.ar    4  NAPHTHALENE44   -0.1030
      2 C2          4.2568   -5.0051   15.7883 C.ar    4  NAPHTHALENE44   -0.1289
      3 C3          5.5535   -4.4857   15.7815 C.ar    4  NAPHTHALENE44   -0.0971
      4 C4          6.5861   -5.1964   15.1632 C.ar    4  NAPHTHALENE44   -0.1342
      5 ****        6.7802   -9.3682   10.3948 H       2  APM222      0.1262
      6 ****        5.4365  -10.4006    8.4812 H       2  APM222      0.1153
      7 ****        6.2948   -8.9339    7.9934 H       2  APM222      0.1094
      8 ****        3.0182  -10.4195    8.3081 H       2  APM222      0.1363
      9 ****        5.1227   -6.7403    7.7379 H       2  APM222      0.1644
     10 ****        2.9975   -5.6214    7.1566 H       2  APM222      0.1646
     11 ****        0.8685   -6.7713    7.4316 H       2  APM222      0.1372
     12 ****        3.9038   -9.8552   10.7452 H       2  APM222      0.2226
     13 ****       -1.5424   -9.6037    7.3377 H       2  APM222      0.2750
     14 ****       -0.6114   -8.2623    6.6783 H       2  APM222      0.2919
     15 ****        1.0613  -10.9422    9.2302 H       2  APM222      0.2938
     16 ****       -0.5991  -11.1219    8.6720 H       2  APM222      0.2754
     17 ****        7.7176   -6.3437    8.4500 H       3  PIP333      0.0840
     18 ****        7.9924   -7.8855    9.2699 H       3  PIP333      0.1020
     19 ****        9.8454   -6.4187    9.9337 H       3  PIP333      0.1190
     20 ****        8.7980   -6.7398   11.2861 H       3  PIP333      0.0790
     21 C           9.4765   -3.8204   10.5146 C.2     5  CO55        0.4089
     22 O           9.3339   -2.8564   11.2520 O.2     5  CO55       -0.4020
     23 ****        7.0186   -3.4207   11.2664 H       3  PIP333      0.1333
     24 ****        7.2350   -4.8979   12.2423 H       3  PIP333      0.0934
     25 ****        5.1581   -5.0293   10.9269 H       3  PIP333      0.1344
     26 ****        6.0242   -4.6454    9.4261 H       3  PIP333      0.0755
     27 S           5.4413  -10.4447   12.5394 S.O2    1  TOS111      2.6201
     28 O1          6.6748  -11.1772   12.3264 O.2     1  TOS111     -0.8623
     29 O2          4.3314  -11.0849   13.2182 O.2     1  TOS111     -0.8683
     30 C5          7.3602   -7.1503   13.9393 C.ar    4  NAPHTHALENE44   -0.1274
     31 C6          7.0964   -8.3775   13.3252 C.ar    4  NAPHTHALENE44   -0.0694
     32 C7          5.8014   -8.9013   13.3382 C.ar    4  NAPHTHALENE44   -0.7296
     33 C8          4.7696   -8.1812   13.9457 C.ar    4  NAPHTHALENE44    0.0326
     34 C9          5.0270   -6.9497   14.5579 C.ar    4  NAPHTHALENE44   -0.0539
     35 C10         6.3293   -6.4301   14.5537 C.ar    4  NAPHTHALENE44    0.0081
     36 H1          2.9816   -6.6236   15.1845 H       4  NAPHTHALENE44    0.1363
     37 C           5.5834   -7.5526   10.4529 C.2     2  APM222      0.2714
     38 CA          5.7711   -9.0227   10.1329 C.3     2  APM222      0.0452
     39 CB          5.4811   -9.3106    8.6301 C.3     2  APM222     -0.1236
     40 CG          4.1713   -8.6368    8.1785 C.ar    2  APM222     -0.0593
     41 CD1         2.9638   -9.3505    8.1430 C.ar    2  APM222     -0.0787
     42 CD2         4.1887   -7.2933    7.7952 C.ar    2  APM222     -0.0548
     43 CE1         1.7315   -8.7224    7.8915 C.ar    2  APM222     -0.1410
     44 CE2         2.9861   -6.6599    7.4823 C.ar    2  APM222     -0.1084
     45 CZ          1.7726   -7.3477    7.5872 C.ar    2  APM222     -0.0818
     46 CF          0.4120   -9.4942    7.9447 C.3     2  APM222      0.3423
     47 O           4.5495   -7.2956   11.0485 O.2     2  APM222     -0.3660
     48 N           4.8726   -9.7930   10.9851 N.3     2  APM222     -0.8243
     49 NG1        -0.6452   -9.0929    7.2820 N.3     2  APM222     -0.3309
     50 NG2         0.2862  -10.5880    8.6565 N.3     2  APM222     -0.3288
     51 N1          6.4617   -6.5628   10.1106 N.am    3  PIP333     -0.3399
     52 C2          7.7343   -6.8332    9.4348 C.3     3  PIP333     -0.0342
     53 C3          8.8417   -6.2133   10.3195 C.3     3  PIP333     -0.0281
     54 N4          8.5334   -4.8081   10.5971 N.am    3  PIP333     -0.3668
     55 C5          7.2410   -4.5000   11.2167 C.3     3  PIP333     -0.0051
     56 C6          6.1120   -5.1677   10.3927 C.3     3  PIP333     -0.0332
     57 N57        10.5658   -3.7931    9.6879 N.am    5  CO55       -0.3617
     58 C58        10.6166   -4.5551    8.4384 C.3     5  CO55       -0.0631
     59 C59        11.6175   -2.8164    9.9800 C.3     5  CO55       -0.0396
     60 H2          3.4539   -4.4553   16.2699 H       4  NAPHTHALENE44    0.1414
     61 H3          5.7582   -3.5312   16.2564 H       4  NAPHTHALENE44    0.1443
     62 H4          7.5885   -4.7789   15.1621 H       4  NAPHTHALENE44    0.1461
     63 H5          8.3744   -6.7625   13.9334 H       4  NAPHTHALENE44    0.1439
     64 H6          7.8991   -8.9206   12.8386 H       4  NAPHTHALENE44    0.1433
     65 H8          3.7644   -8.5890   13.9339 H       4  NAPHTHALENE44    0.1443
     66 ****       10.9770   -3.8937    7.6356 H       5  CO55        0.0786
     67 ****        9.6314   -4.9141    8.1127 H       5  CO55        0.0779
     68 ****       11.3296   -5.3900    8.5147 H       5  CO55        0.0694
     69 ****       11.8684   -2.8137   11.0525 H       5  CO55        0.0984
     70 ****       11.2827   -1.8096    9.6865 H       5  CO55        0.0810
     71 ****       12.5391   -3.0522    9.4258 H       5  CO55        0.0793
@<TRIPOS>BOND
     1    27    32    1
     2    30    31   ar
     3    30    35   ar
     4    30    63    1
     5    35     4   ar
     6    35    34   ar
     7    34     1   ar
     8    38     5    1
     9    39     6    1
    10    39     7    1
    11    41     8    1
    12    42     9    1
    13    44    10    1
    14    45    11    1
    15    48    12    1
    16    49    13    1
    17    49    14    1
    18    50    15    1
    19    50    16    1
    20    52    17    1
    21    52    18    1
    22    53    19    1
    23    53    20    1
    24    21    22    2
    25    54    21   am
    26    55    23    1
    27    55    24    1
    28    56    25    1
    29    56    26    1
    30    34    33   ar
    31    27    29    2
    32    27    28    2
    33    33    32   ar
    34    33    65    1
    35    32    31   ar
    36    31    64    1
    37     1     2   ar
    38     1    36    1
    39    37    47    2
    40    37    38    1
    41    38    48    1
    42    38    39    1
    43    39    40    1
    44    40    42   ar
    45    40    41   ar
    46    41    43   ar
    47    43    46    1
    48    43    45   ar
    49    45    44   ar
    50    44    42   ar
    51    46    50    1
    52    46    49    1
    53    56    51    1
    54    51    52    1
    55    52    53    1
    56    53    54    1
    57    54    55    1
    58    55    56    1
    59    37    51   am
    60    48    27    1
    61    21    57   am
    62    57    58    1
    63    57    59    1
    64     2     3   ar
    65     2    60    1
    66     3     4   ar
    67     3    61    1
    68     4    62    1
    69    58    66    1
    70    58    67    1
    71    58    68    1
    72    59    69    1
    73    59    70    1
    74    59    71    1
