@<TRIPOS>MOLECULE
CPD_67-b
 78 82 0 0 0
SMALL
GASTEIGER

@<TRIPOS>ATOM
      1 C1          4.1065   -5.2126   14.8389 C.ar    4  NAPHTHALENE44   -0.1004
      2 C2          4.4429   -3.9576   15.3533 C.ar    4  NAPHTHALENE44   -0.1246
      3 C3          5.7754   -3.5380   15.3500 C.ar    4  NAPHTHALENE44   -0.0911
      4 C4          6.7693   -4.3755   14.8369 C.ar    4  NAPHTHALENE44   -0.1432
      5 ****        6.7836   -9.4607   10.4114 H       2  APM222      0.1294
      6 ****        5.3511  -10.4242    8.6322 H       2  APM222      0.1244
      7 ****        6.2431   -9.0419    7.9592 H       2  APM222      0.0967
      8 ****        2.9719  -10.4234    8.2366 H       2  APM222      0.1432
      9 ****        5.1118   -6.7429    7.8304 H       2  APM222      0.1386
     10 ****        2.9747   -5.5328    7.5090 H       2  APM222      0.1601
     11 ****        0.8269   -6.7070    7.8337 H       2  APM222      0.1447
     12 ****        3.8937   -9.3427   10.8437 H       2  APM222      0.2294
     13 ****       -1.5526   -9.3562    7.3373 H       2  APM222      0.2806
     14 ****       -0.5927   -7.9314    6.9429 H       2  APM222      0.2948
     15 ****        1.0976  -11.0931    8.8737 H       2  APM222      0.2961
     16 ****       -0.5869  -11.1559    8.3558 H       2  APM222      0.2813
     17 ****        8.0712   -5.0861   10.8451 H       3  PIP333      0.1021
     18 ****        6.3191   -4.8776   10.6621 H       3  PIP333      0.1591
     19 ****        7.5441   -3.5064    9.0828 H       3  PIP333      0.1141
     20 ****        6.5370   -4.6935    8.2012 H       3  PIP333      0.0929
     21 ****        9.5691   -4.8705    8.6420 H       3  PIP333      0.1478
     22 ****        9.5130   -7.1022    7.5710 H       3  PIP333      0.1131
     23 ****        7.7611   -6.9209    7.2499 H       3  PIP333      0.0913
     24 ****        8.2584   -8.4324    9.1369 H       3  PIP333      0.1287
     25 ****        9.1956   -7.1872    9.9668 H       3  PIP333      0.1072
     26 S           5.3209   -9.7924   12.7502 S.O2    1  TOS111      2.6172
     27 O1          6.5031  -10.6316   12.7131 O.2     1  TOS111     -0.8565
     28 O2          4.1412  -10.2515   13.4591 O.2     1  TOS111     -0.8509
     29 C5          7.4284   -6.4865   13.8231 C.ar    4  NAPHTHALENE44   -0.1357
     30 C6          7.0934   -7.7527   13.3366 C.ar    4  NAPHTHALENE44   -0.0688
     31 C7          5.7633   -8.1816   13.3578 C.ar    4  NAPHTHALENE44   -0.7300
     32 C8          4.7680   -7.3203   13.8258 C.ar    4  NAPHTHALENE44    0.0340
     33 C9          5.1002   -6.0575   14.3308 C.ar    4  NAPHTHALENE44   -0.0567
     34 C10         6.4374   -5.6382   14.3301 C.ar    4  NAPHTHALENE44    0.0075
     35 H1          3.0660   -5.5237   14.8413 H       4  NAPHTHALENE44    0.1416
     36 C           6.0407   -7.4328   10.2935 C.2     2  APM222      0.2697
     37 CA          5.8637   -8.9306   10.1281 C.3     2  APM222      0.0465
     38 CB          5.4606   -9.3284    8.6784 C.3     2  APM222     -0.1176
     39 CG          4.1570   -8.6353    8.2473 C.ar    2  APM222     -0.0627
     40 CD1         2.9483   -9.3416    8.1645 C.ar    2  APM222     -0.0760
     41 CD2         4.1718   -7.2739    7.9284 C.ar    2  APM222     -0.0674
     42 CE1         1.7284   -8.6729    7.9790 C.ar    2  APM222     -0.1362
     43 CE2         2.9667   -6.5919    7.7380 C.ar    2  APM222     -0.1043
     44 CZ          1.7526   -7.2784    7.8481 C.ar    2  APM222     -0.0804
     45 CF          0.4052   -9.4263    7.9176 C.3     2  APM222      0.3332
     46 O           5.0791   -6.8714   10.7927 O.2     2  APM222     -0.3345
     47 N           4.8623   -9.3768   11.0923 N.3     2  APM222     -0.8271
     48 NG1        -0.6468   -8.8658    7.3677 N.3     2  APM222     -0.3231
     49 NG2         0.3016  -10.6369    8.4111 N.3     2  APM222     -0.3197
     50 N1          7.1588   -6.7300    9.9327 N.am    3  PIP333     -0.3551
     51 C2          7.2186   -5.2915   10.1774 C.3     3  PIP333     -0.0019
     52 C3          7.4384   -4.5708    8.8226 C.3     3  PIP333     -0.1989
     53 C4          8.6788   -5.1021    8.0325 C.3     3  PIP333     -0.0706
     54 C5          8.5764   -6.6594    7.9431 C.3     3  PIP333     -0.1989
     55 C6          8.3247   -7.3513    9.3094 C.3     3  PIP333     -0.0018
     56 N1          8.8369   -4.4534    6.6815 N.4     5  PIPERIDINE55    0.0118
     57 C1          8.9106   -2.9621    6.7538 C.3     5  PIPERIDINE55   -0.1393
     58 C2          9.0986   -2.2555    5.3841 C.3     5  PIPERIDINE55   -0.1795
     59 H2          3.6698   -3.3093   15.7547 H       4  NAPHTHALENE44    0.1487
     60 H3          6.0376   -2.5617   15.7466 H       4  NAPHTHALENE44    0.1473
     61 H4          7.8002   -4.0347   14.8363 H       4  NAPHTHALENE44    0.1397
     62 H5          8.4670   -6.1709   13.8054 H       4  NAPHTHALENE44    0.1372
     63 H6          7.8681   -8.4017   12.9424 H       4  NAPHTHALENE44    0.1409
     64 H8          3.7326   -7.6425   13.7934 H       4  NAPHTHALENE44    0.1470
     65 C3         10.3668   -2.7848    4.6810 C.3     5  PIPERIDINE55   -0.1748
     66 C4         10.2142   -4.3123    4.5198 C.3     5  PIPERIDINE55   -0.1794
     67 C5         10.0022   -4.9799    5.9056 C.3     5  PIPERIDINE55   -0.1399
     68 H2          9.7379   -2.6665    7.4213 H       5  PIPERIDINE55    0.1461
     69 H3          7.9797   -2.5214    7.1438 H       5  PIPERIDINE55    0.1357
     70 H4          9.1896   -1.1647    5.5287 H       5  PIPERIDINE55    0.1467
     71 H5          8.2177   -2.4435    4.7465 H       5  PIPERIDINE55    0.1022
     72 H6         11.2600   -2.5543    5.2853 H       5  PIPERIDINE55    0.1099
     73 H7         10.4808   -2.3074    3.6930 H       5  PIPERIDINE55    0.1362
     74 H8         11.1185   -4.7203    4.0348 H       5  PIPERIDINE55    0.1470
     75 H9          9.3501   -4.5295    3.8687 H       5  PIPERIDINE55    0.1023
     76 H10         9.8872   -6.0466    5.6561 H       5  PIPERIDINE55    0.1347
     77 H11        10.9242   -4.8627    6.5003 H       5  PIPERIDINE55    0.1463
     78 ****        7.9513   -4.6897    6.1011 H       5  PIPERIDINE55    0.2418
@<TRIPOS>BOND
     1    26    31    1
     2    29    30   ar
     3    29    34   ar
     4    29    62    1
     5    34     4   ar
     6    34    33   ar
     7    33     1   ar
     8    37     5    1
     9    38     6    1
    10    38     7    1
    11    40     8    1
    12    41     9    1
    13    43    10    1
    14    44    11    1
    15    47    12    1
    16    48    13    1
    17    48    14    1
    18    49    15    1
    19    49    16    1
    20    51    17    1
    21    51    18    1
    22    52    19    1
    23    52    20    1
    24    53    21    1
    25    53    56    1
    26    54    22    1
    27    54    23    1
    28    55    24    1
    29    55    25    1
    30    33    32   ar
    31    26    28    2
    32    26    27    2
    33    32    31   ar
    34    32    64    1
    35    31    30   ar
    36    30    63    1
    37     1     2   ar
    38     1    35    1
    39    36    46    2
    40    36    37    1
    41    37    47    1
    42    37    38    1
    43    38    39    1
    44    39    41   ar
    45    39    40   ar
    46    40    42   ar
    47    42    45    1
    48    42    44   ar
    49    44    43   ar
    50    43    41   ar
    51    45    49    1
    52    45    48    1
    53    55    50    1
    54    50    51    1
    55    51    52    1
    56    52    53    1
    57    53    54    1
    58    54    55    1
    59    36    50   am
    60    47    26    1
    61    56    57    1
    62    56    67    1
    63     2     3   ar
    64     2    59    1
    65     3     4   ar
    66     3    60    1
    67     4    61    1
    68    67    66    1
    69    67    76    1
    70    67    77    1
    71    66    65    1
    72    66    74    1
    73    66    75    1
    74    65    58    1
    75    65    72    1
    76    65    73    1
    77    58    57    1
    78    58    70    1
    79    58    71    1
    80    57    68    1
    81    57    69    1
    82    56    78    1
