@<TRIPOS>MOLECULE
CPD_44-b
 64 67 0 0 0
SMALL
GASTEIGER

@<TRIPOS>ATOM
      1 N1          4.6509   -7.8890   13.8798 N.ar    1  TOS111     -0.1591
      2 C2          6.1280   -5.8118   14.9487 C.ar    1  TOS111     -0.0675
      3 ****        9.8599   -7.9295   13.3728 H       1  TOS111      0.1476
      4 ****        8.5250   -9.8068   12.4909 H       1  TOS111      0.1583
      5 ****        4.0163   -6.8723   14.5053 C.ar    1  TOS111      0.0023
      6 ****        4.7371   -5.8175   15.0695 C.ar    1  TOS111     -0.1940
      7 ****        6.8065   -9.2294   10.3523 H       2  APM222      0.1182
      8 ****        5.2909  -10.4119    8.6315 H       2  APM222      0.1172
      9 ****        6.1420   -8.9982    7.9997 H       2  APM222      0.1093
     10 ****        2.8220  -10.3647    8.6666 H       2  APM222      0.1346
     11 ****        5.0047   -6.7716    7.7672 H       2  APM222      0.1628
     12 ****        2.8972   -5.6322    7.1789 H       2  APM222      0.1635
     13 ****        0.7484   -6.8487    7.3044 H       2  APM222      0.1333
     14 ****        3.9877   -9.7917   11.0068 H       2  APM222      0.2359
     15 ****       -1.5731   -9.5034    7.2324 H       2  APM222      0.2720
     16 ****       -0.5585   -8.1626    6.6721 H       2  APM222      0.2966
     17 ****        1.0067  -10.8920    9.2439 H       2  APM222      0.2995
     18 ****       -0.6633  -11.0900    8.6829 H       2  APM222      0.2728
     19 ****        7.4586   -6.1602    8.3305 H       3  PIP333      0.0779
     20 ****        7.8006   -7.7336    9.0441 H       3  PIP333      0.0960
     21 ****        9.6574   -6.1878    9.4636 H       3  PIP333      0.0949
     22 ****        8.8972   -6.7113   10.9876 H       3  PIP333      0.0929
     23 ****        8.4042   -4.0371    9.5139 H       3  PIP333      0.0904
     24 C25         9.6509   -4.0785   11.2995 C.3     3  PIP333     -0.2074
     25 ****        6.9368   -3.4152   11.4357 H       3  PIP333      0.0946
     26 ****        7.2093   -4.9979   12.2040 H       3  PIP333      0.0939
     27 ****        5.0566   -4.9930   11.0394 H       3  PIP333      0.1261
     28 ****        5.8140   -4.5122    9.5100 H       3  PIP333      0.0723
     29 S           5.7399  -10.4189   12.5249 S.O2    1  TOS111      2.6472
     30 O1          6.6878  -11.4122   12.0537 O.2     1  TOS111     -0.8864
     31 O2          4.7222  -10.8043   13.4815 O.2     1  TOS111     -0.8471
     32 C1          6.6341   -9.0095   13.1544 C.ar    1  TOS111     -0.7120
     33 C2          5.9957   -7.9255   13.7722 C.ar    1  TOS111      0.1149
     34 C3          6.7601   -6.8680   14.2875 C.ar    1  TOS111     -0.1118
     35 C4          8.1507   -6.8693   14.1437 C.ar    1  TOS111     -0.0377
     36 C5          8.7819   -7.9300   13.4934 C.ar    1  TOS111     -0.1712
     37 C6          8.0229   -8.9918   12.9986 C.ar    1  TOS111     -0.0106
     38 ****        6.7025   -4.9912   15.3692 H       1  TOS111      0.1449
     39 C           5.5169   -7.4839   10.4701 C.2     2  APM222      0.2681
     40 CA          5.7588   -8.9467   10.1708 C.3     2  APM222      0.0482
     41 CB          5.3675   -9.3164    8.7128 C.3     2  APM222     -0.1262
     42 CG          4.0529   -8.6395    8.2942 C.ar    2  APM222     -0.0515
     43 CD1         2.8369   -9.3306    8.3403 C.ar    2  APM222     -0.0738
     44 CD2         4.0688   -7.3129    7.8479 C.ar    2  APM222     -0.0558
     45 CE1         1.6446   -8.7047    7.9559 C.ar    2  APM222     -0.1500
     46 CE2         2.8797   -6.6697    7.4985 C.ar    2  APM222     -0.1050
     47 CZ          1.6690   -7.3629    7.5606 C.ar    2  APM222     -0.0868
     48 CF          0.3328   -9.4648    7.9588 C.3     2  APM222      0.3311
     49 O           4.4986   -7.2638   11.1075 O.2     2  APM222     -0.3555
     50 N           4.9773   -9.7162   11.1305 N.3     2  APM222     -0.8274
     51 NG1        -0.6667   -9.0124    7.2454 N.3     2  APM222     -0.3276
     52 NG2         0.2187  -10.5562    8.6709 N.3     2  APM222     -0.3225
     53 N1          6.3327   -6.4658   10.0735 N.am    3  PIP333     -0.3384
     54 C2          7.5512   -6.6945    9.2885 C.3     3  PIP333     -0.0180
     55 C3          8.7444   -6.1101   10.0778 C.3     3  PIP333     -0.1765
     56 C4          8.4763   -4.6250   10.4476 C.3     3  PIP333     -0.1040
     57 C5          7.1438   -4.4795   11.2347 C.3     3  PIP333     -0.1762
     58 C6          5.9722   -5.0909   10.4329 C.3     3  PIP333     -0.0121
     59 ****       10.6096   -4.2167   10.7771 H       3  PIP333      0.0815
     60 ****        9.6970   -4.6146   12.2594 H       3  PIP333      0.0712
     61 ****        9.5110   -3.0058   11.5017 H       3  PIP333      0.0819
     62 ****        2.9342   -6.8786   14.5697 H       1  TOS111      0.1684
     63 ****        4.2322   -5.0121   15.5953 H       1  TOS111      0.1489
     64 ****        8.7475   -6.0510   14.5335 H       1  TOS111      0.1428
@<TRIPOS>BOND
     1    33     1   ar
     2     2    34   ar
     3    36     3    1
     4    37     4    1
     5     1     5   ar
     6     6     2   ar
     7     5     6   ar
     8    40     7    1
     9    41     8    1
    10    41     9    1
    11    43    10    1
    12    44    11    1
    13    46    12    1
    14    47    13    1
    15    50    14    1
    16    51    15    1
    17    51    16    1
    18    52    17    1
    19    52    18    1
    20    54    19    1
    21    54    20    1
    22    55    21    1
    23    55    22    1
    24    56    23    1
    25    56    24    1
    26    57    25    1
    27    57    26    1
    28    58    27    1
    29    58    28    1
    30    29    32    1
    31    29    31    2
    32    29    30    2
    33    32    37   ar
    34    32    33   ar
    35    33    34   ar
    36    34    35   ar
    37    35    36   ar
    38    36    37   ar
    39    39    49    2
    40    39    40    1
    41    40    50    1
    42    40    41    1
    43    41    42    1
    44    42    44   ar
    45    42    43   ar
    46    43    45   ar
    47    45    48    1
    48    45    47   ar
    49    47    46   ar
    50    46    44   ar
    51    48    52    1
    52    48    51    1
    53    58    53    1
    54    53    54    1
    55    54    55    1
    56    55    56    1
    57    56    57    1
    58    57    58    1
    59    39    53   am
    60    50    29    1
    61    24    59    1
    62    24    60    1
    63    24    61    1
    64     2    38    1
    65     5    62    1
    66     6    63    1
    67    35    64    1
