@<TRIPOS>MOLECULE
C03
 22 22 0 0 0
SMALL
GASTEIGER

@<TRIPOS>ATOM
      1 C           1.7893  -11.4987   73.8305 C.ar    1  LIG111      0.0590
      2 C           2.7596  -11.9865   72.9507 C.ar    1  LIG111     -0.0471
      3 C           3.9417  -11.2754   72.7445 C.ar    1  LIG111     -0.0499
      4 C           4.1664  -10.0558   73.3958 C.ar    1  LIG111      0.0291
      5 C           3.1245   -9.4962   74.1397 C.ar    1  LIG111     -0.0499
      6 C           1.9655  -10.2340   74.4045 C.ar    1  LIG111     -0.0471
      7 C           5.5331   -9.4161   73.2605 C.2     1  LIG111      0.2734
      8 C           6.0968   -8.2972   74.0424 C.2     1  LIG111      0.4260
      9 O           6.1078   -8.2815   75.2654 O.co2   1  LIG111     -0.2369
     10 O           6.2650   -9.8887   72.4129 O.2     1  LIG111     -0.2795
     11 O           6.7462   -7.1838   73.2776 O.co2   1  LIG111     -0.2369
     12 C           0.5772  -12.3524   74.1342 C.2     1  LIG111      0.3389
     13 H           2.6078  -12.9211   72.4196 H       1  LIG111      0.0626
     14 H           4.6822  -11.6936   72.0709 H       1  LIG111      0.0625
     15 H           3.2105   -8.4854   74.5067 H       1  LIG111      0.0625
     16 H           1.2041   -9.8178   75.0568 H       1  LIG111      0.0626
     17 O          -0.2878  -11.9258   74.8833 O.2     1  LIG111     -0.2450
     18 O           0.4931  -13.5642   73.5604 O.3     1  LIG111     -0.4645
     19 C          -0.6711  -14.3285   73.9218 C.3     1  LIG111      0.0820
     20 H          -0.6719  -14.5577   74.9966 H       1  LIG111      0.0661
     21 H          -0.6301  -15.2778   73.3677 H       1  LIG111      0.0661
     22 H          -1.6012  -13.8047   73.6506 H       1  LIG111      0.0661
@<TRIPOS>BOND
     1    14     3    1
     2    10     7    2
     3    13     2    1
     4     3     2   ar
     5     3     4   ar
     6     2     1   ar
     7     7     4    1
     8     7     8    1
     9    11     8   ar
    10    21    19    1
    11     4     5   ar
    12    18    19    1
    13    18    12    1
    14    22    19    1
    15     1    12    1
    16     1     6   ar
    17    19    20    1
    18     8     9   ar
    19    12    17    2
    20     5     6   ar
    21     5    15    1
    22     6    16    1
