@<TRIPOS>MOLECULE
C14
 23 24 0 0 0
SMALL
GASTEIGER

@<TRIPOS>ATOM
      1 C           1.9992  -11.3374   73.3829 C.ar    1  LIG111     -0.0179
      2 C           3.1318  -11.7967   72.7043 C.ar    1  LIG111     -0.0538
      3 C           4.2999  -11.0312   72.6974 C.ar    1  LIG111     -0.0575
      4 C           4.3770   -9.8062   73.3738 C.ar    1  LIG111     -0.0360
      5 C           3.2448   -9.3624   74.0568 C.ar    1  LIG111     -0.0503
      6 C           2.0711  -10.1268   74.0829 C.ar    1  LIG111     -0.0176
      7 C           5.6582   -8.9542   73.3403 C.3     1  LIG111      0.0743
      8 C           6.1103   -8.3277   74.6383 C.2     1  LIG111      0.3603
      9 O           6.5819   -9.0772   75.5431 O.co2   1  LIG111     -0.2460
     10 H           6.4717   -9.6194   73.0406 H       1  LIG111      0.0428
     11 O           6.0610   -7.0699   74.8209 O.co2   1  LIG111     -0.2460
     12 C           0.8017  -12.0633   73.3639 C.ar    1  LIG111     -0.0540
     13 H           3.1100  -12.7433   72.1712 H       1  LIG111      0.0624
     14 H           5.1440  -11.3939   72.1333 H       1  LIG111      0.0621
     15 H           3.2792   -8.4042   74.5532 H       1  LIG111      0.0626
     16 C           0.9579   -9.6836   74.8009 C.ar    1  LIG111     -0.0540
     17 C          -0.2485  -10.3867   74.7564 C.ar    1  LIG111     -0.0612
     18 C          -0.3245  -11.5829   74.0383 C.ar    1  LIG111     -0.0612
     19 H           5.5427   -8.1831   72.5632 H       1  LIG111      0.0428
     20 H           0.7357  -13.0015   72.8211 H       1  LIG111      0.0624
     21 H           1.0292   -8.7866   75.3970 H       1  LIG111      0.0624
     22 H          -1.1205  -10.0026   75.2774 H       1  LIG111      0.0618
     23 H          -1.2586  -12.1356   74.0042 H       1  LIG111      0.0618
@<TRIPOS>BOND
     1    14     3    1
     2    13     2    1
     3    19     7    1
     4     3     2   ar
     5     3     4   ar
     6     2     1   ar
     7    20    12    1
     8    10     7    1
     9     7     4    1
    10     7     8    1
    11    12     1   ar
    12    12    18   ar
    13     4     5   ar
    14     1     6   ar
    15    23    18    1
    16    18    17   ar
    17     5     6   ar
    18     5    15    1
    19     6    16   ar
    20     8    11   ar
    21     8     9   ar
    22    17    16   ar
    23    17    22    1
    24    16    21    1
