@<TRIPOS>MOLECULE
C23
 73 77 0 0 0
SMALL
GASTEIGER

@<TRIPOS>ATOM
      1 C          -3.7547  -16.8251   78.9606 C.ar    1  LIG111      0.1210
      2 C          -3.2630  -17.2382   80.2017 C.ar    1  LIG111     -0.0192
      3 C          -4.1079  -17.8740   81.1162 C.ar    1  LIG111     -0.0472
      4 C          -5.4641  -18.0584   80.8234 C.ar    1  LIG111      0.0293
      5 C          -5.9737  -17.5361   79.6288 C.ar    1  LIG111     -0.0472
      6 C          -5.1227  -16.9368   78.6964 C.ar    1  LIG111     -0.0192
      7 C          -6.3452  -18.8022   81.8064 C.2     1  LIG111      0.2734
      8 C          -7.5973  -19.4760   81.4107 C.2     1  LIG111      0.4260
      9 O          -7.8193  -19.7339   80.1978 O.co2   1  LIG111     -0.2369
     10 O          -6.0082  -18.8582   82.9782 O.2     1  LIG111     -0.2795
     11 O          -8.4132  -19.7983   82.3157 O.co2   1  LIG111     -0.2369
     12 C          -2.7559  -17.0421   76.7792 C.3     1  LIG111      0.1147
     13 H          -2.2248  -17.0658   80.4601 H       1  LIG111      0.0654
     14 H          -3.6997  -18.2259   82.0583 H       1  LIG111      0.0626
     15 H          -7.0351  -17.5762   79.4139 H       1  LIG111      0.0626
     16 H          -5.5321  -16.5498   77.7693 H       1  LIG111      0.0654
     17 C          -2.1977  -14.8345   75.6728 C.ar    1  LIG111     -0.0550
     18 C          -1.9670  -16.2105   75.7603 C.ar    1  LIG111     -0.0097
     19 C          -1.0233  -16.7941   74.9087 C.ar    1  LIG111     -0.0429
     20 C          -0.3052  -16.0194   73.9906 C.ar    1  LIG111      0.0438
     21 C          -0.4364  -14.6217   74.0144 C.ar    1  LIG111      0.0017
     22 C          -1.4101  -14.0428   74.8358 C.ar    1  LIG111     -0.0543
     23 H          -1.5543  -12.9671   74.8318 H       1  LIG111      0.0622
     24 O           1.2656  -12.9970   74.1779 O.3     1  LIG111     -0.4874
     25 O          -2.8899  -16.2911   78.0017 O.3     1  LIG111     -0.4874
     26 C           2.2142  -12.0649   73.7465 C.ar    1  LIG111      0.1210
     27 C           3.1614  -12.3886   72.7695 C.ar    1  LIG111     -0.0192
     28 C           4.1599  -11.4730   72.4378 C.ar    1  LIG111     -0.0472
     29 C           4.2216  -10.2097   73.0380 C.ar    1  LIG111      0.0293
     30 C           3.2177   -9.8623   73.9531 C.ar    1  LIG111     -0.0472
     31 C           2.2353  -10.7895   74.3172 C.ar    1  LIG111     -0.0192
     32 C           5.3692   -9.3004   72.6395 C.2     1  LIG111      0.2734
     33 C           5.6368   -7.9643   73.2006 C.2     1  LIG111      0.4260
     34 O           5.1355   -7.5925   74.2908 O.co2   1  LIG111     -0.2369
     35 O           6.4018   -7.2103   72.5456 O.co2   1  LIG111     -0.2369
     36 O           6.1441   -9.6868   71.7793 O.2     1  LIG111     -0.2795
     37 H          -2.2542  -17.9983   76.9915 H       1  LIG111      0.0748
     38 H          -3.7311  -17.2528   76.3164 H       1  LIG111      0.0748
     39 H          -2.9856  -14.3742   76.2600 H       1  LIG111      0.0621
     40 H          -0.1661  -12.9417   72.6590 H       1  LIG111      0.0748
     41 H          -0.8522  -17.8653   74.9531 H       1  LIG111      0.0629
     42 C           0.5797  -16.7565   73.0075 C.2     1  LIG111      0.2486
     43 C           0.4528  -13.6725   73.2025 C.3     1  LIG111      0.1153
     44 H           1.0594  -14.2206   72.4738 H       1  LIG111      0.0748
     45 H           3.1538  -13.3424   72.2557 H       1  LIG111      0.0654
     46 H           4.8894  -11.7673   71.6936 H       1  LIG111      0.0626
     47 H           3.1724   -8.8762   74.3953 H       1  LIG111      0.0626
     48 H           1.4825  -10.5223   75.0534 H       1  LIG111      0.0654
     49 O           1.3996  -17.5294   73.4760 O.2     1  LIG111     -0.2698
     50 N           0.4470  -16.5792   71.7186 N.am    1  LIG111     -0.2815
     51 C           1.1803  -17.2854   70.8232 C.ar    1  LIG111      0.0339
     52 C           1.2551  -18.6815   70.8995 C.ar    1  LIG111     -0.0370
     53 C           1.9379  -19.4112   69.9229 C.ar    1  LIG111     -0.0176
     54 C           2.5109  -18.7497   68.8330 C.ar    1  LIG111      0.1286
     55 C           2.5111  -17.3521   68.7928 C.ar    1  LIG111     -0.0176
     56 C           1.8531  -16.6244   69.7887 C.ar    1  LIG111     -0.0370
     57 C           4.1624  -20.2507   68.1829 C.ar    1  LIG111      0.1284
     58 C           4.1523  -21.6368   68.0034 C.ar    1  LIG111     -0.0193
     59 C           5.2390  -22.4014   68.4425 C.ar    1  LIG111     -0.0583
     60 C           6.2918  -21.8031   69.1387 C.ar    1  LIG111     -0.0615
     61 H          -0.2501  -15.9039   71.3644 H       1  LIG111      0.1551
     62 H           0.7665  -19.2139   71.7072 H       1  LIG111      0.0637
     63 H           2.0130  -20.4915   70.0046 H       1  LIG111      0.0655
     64 O           3.0704  -19.4805   67.7846 O.3     1  LIG111     -0.4560
     65 C           6.3286  -20.4134   69.2501 C.ar    1  LIG111     -0.0583
     66 C           5.2822  -19.6357   68.7485 C.ar    1  LIG111     -0.0193
     67 H           3.0217  -16.8373   67.9845 H       1  LIG111      0.0655
     68 H           1.8598  -15.5405   69.7580 H       1  LIG111      0.0637
     69 H           3.3055  -22.1159   67.5206 H       1  LIG111      0.0654
     70 H           5.2728  -23.4601   68.2340 H       1  LIG111      0.0619
     71 H           7.0834  -22.4043   69.5783 H       1  LIG111      0.0618
     72 H           7.1856  -19.9376   69.6998 H       1  LIG111      0.0619
     73 H           5.3414  -18.5552   68.7797 H       1  LIG111      0.0654
@<TRIPOS>BOND
     1    69    58    1
     2    64    57    1
     3    64    54    1
     4    67    55    1
     5    58    57   ar
     6    58    59   ar
     7    57    66   ar
     8    70    59    1
     9    59    60   ar
    10    66    73    1
    11    66    65   ar
    12    55    54   ar
    13    55    56   ar
    14    54    53   ar
    15    60    65   ar
    16    60    71    1
    17    65    72    1
    18    68    56    1
    19    56    51   ar
    20    53    63    1
    21    53    52   ar
    22    51    52   ar
    23    51    50    1
    24    52    62    1
    25    61    50    1
    26    46    28    1
    27    50    42   am
    28    36    32    2
    29    45    27    1
    30    28    27   ar
    31    28    29   ar
    32    44    43    1
    33    35    33   ar
    34    32    29    1
    35    32    33    1
    36    40    43    1
    37    27    26   ar
    38    42    49    2
    39    42    20    1
    40    29    30   ar
    41    33    34   ar
    42    43    21    1
    43    43    24    1
    44    26    24    1
    45    26    31   ar
    46    30    31   ar
    47    30    47    1
    48    20    21   ar
    49    20    19   ar
    50    21    22   ar
    51    31    48    1
    52    23    22    1
    53    22    17   ar
    54    19    41    1
    55    19    18   ar
    56    17    18   ar
    57    17    39    1
    58    18    12    1
    59    38    12    1
    60    12    37    1
    61    12    25    1
    62    16     6    1
    63    25     1    1
    64     6     1   ar
    65     6     5   ar
    66     1     2   ar
    67    15     5    1
    68     5     4   ar
    69     9     8   ar
    70     2    13    1
    71     2     3   ar
    72     4     3   ar
    73     4     7    1
    74     3    14    1
    75     8     7    1
    76     8    11   ar
    77     7    10    2
