@<TRIPOS>MOLECULE
C28
 20 21 0 0 0
SMALL
GASTEIGER

@<TRIPOS>ATOM
      1 C           5.8385   -8.7139   74.0846 C.2     1  LIG111      0.2402
      2 C           6.6554   -8.0775   73.0453 C.2     1  LIG111      0.2677
      3 C           5.8665   -8.8956   72.1358 C.2     1  LIG111      0.1792
      4 C           5.0947   -9.4825   73.0589 C.2     1  LIG111      0.0781
      5 O           5.8544   -8.6694   75.3065 O.2     1  LIG111     -0.2829
      6 O           7.5965   -7.2997   72.9973 O.2     1  LIG111     -0.2799
      7 O           5.9410   -9.0200   70.8068 O.2     1  LIG111     -0.5026
      8 C           3.9821  -10.5020   73.1239 C.ar    1  LIG111     -0.0104
      9 C           3.9569  -11.6059   72.2637 C.ar    1  LIG111     -0.0526
     10 C           2.8741  -12.4894   72.2803 C.ar    1  LIG111     -0.0438
     11 C           1.8487  -12.3177   73.2150 C.ar    1  LIG111      0.0518
     12 C           1.9093  -11.2614   74.1272 C.ar    1  LIG111     -0.0438
     13 C           2.9627  -10.3443   74.0679 C.ar    1  LIG111     -0.0526
     14 C           0.7319  -13.2288   73.2382 C.1     1  LIG111      0.0992
     15 N          -0.1640  -13.9615   73.2588 N.1     1  LIG111     -0.1909
     16 H           5.2780   -9.6010   70.4433 H       1  LIG111      0.2923
     17 H           4.7765  -11.7870   71.5820 H       1  LIG111      0.0624
     18 H           2.8342  -13.3092   71.5688 H       1  LIG111      0.0631
     19 H           1.1350  -11.1530   74.8805 H       1  LIG111      0.0631
     20 H           2.9842   -9.5039   74.7533 H       1  LIG111      0.0624
@<TRIPOS>BOND
     1    16     7    1
     2     7     3    1
     3    18    10    1
     4    17     9    1
     5     3     2    1
     6     3     4    2
     7     9    10   ar
     8     9     8   ar
     9    10    11   ar
    10     6     2    2
    11     2     1    1
    12     4     8    1
    13     4     1    1
    14     8    13   ar
    15    11    14    1
    16    11    12   ar
    17    14    15    3
    18    13    12   ar
    19    13    20    1
    20     1     5    2
    21    12    19    1
