@<TRIPOS>MOLECULE
C31
 23 24 0 0 0
SMALL
GASTEIGER

@<TRIPOS>ATOM
      1 C           5.8526   -8.7382   74.0770 C.2     1  LIG111      0.2402
      2 C           6.6602   -8.0619   73.0556 C.2     1  LIG111      0.2677
      3 C           5.8797   -8.8643   72.1234 C.2     1  LIG111      0.1792
      4 C           5.1229   -9.4927   73.0303 C.2     1  LIG111      0.0781
      5 O           5.8659   -8.7240   75.3003 O.2     1  LIG111     -0.2829
      6 O           7.5914   -7.2710   73.0304 O.2     1  LIG111     -0.2799
      7 O           5.9514   -8.9458   70.7905 O.2     1  LIG111     -0.5026
      8 C           4.0335  -10.5392   73.0572 C.ar    1  LIG111     -0.0104
      9 C           4.0380  -11.6027   72.1520 C.ar    1  LIG111     -0.0531
     10 C           2.9771  -12.5101   72.1179 C.ar    1  LIG111     -0.0491
     11 C           1.9356  -12.4157   73.0488 C.ar    1  LIG111      0.0365
     12 C           1.9665  -11.3890   74.0048 C.ar    1  LIG111     -0.0491
     13 C           3.0050  -10.4536   74.0028 C.ar    1  LIG111     -0.0531
     14 C           0.8127  -13.4298   72.9824 C.2     1  LIG111      0.2415
     15 O           0.5411  -13.9049   71.8912 O.2     1  LIG111     -0.2704
     16 N           0.1431  -13.8149   74.0857 N.am    1  LIG111     -0.3253
     17 H           5.2881   -9.5192   70.4103 H       1  LIG111      0.2923
     18 H           4.8646  -11.7388   71.4681 H       1  LIG111      0.0624
     19 H           2.9674  -13.2937   71.3680 H       1  LIG111      0.0625
     20 H           1.1802  -11.3018   74.7447 H       1  LIG111      0.0625
     21 H           3.0062   -9.6515   74.7342 H       1  LIG111      0.0624
     22 H          -0.5938  -14.4865   73.9911 H       1  LIG111      0.1453
     23 H           0.3825  -13.4811   74.9945 H       1  LIG111      0.1453
@<TRIPOS>BOND
     1    17     7    1
     2     7     3    1
     3    19    10    1
     4    18     9    1
     5    15    14    2
     6    10     9   ar
     7    10    11   ar
     8     3     4    2
     9     3     2    1
    10     9     8   ar
    11    14    11    1
    12    14    16   am
    13     4     8    1
    14     4     1    1
    15     6     2    2
    16    11    12   ar
    17     2     1    1
    18     8    13   ar
    19    22    16    1
    20    13    12   ar
    21    13    21    1
    22    12    20    1
    23     1     5    2
    24    16    23    1
