@<TRIPOS>MOLECULE
C32
 22 23 0 0 0
SMALL
GASTEIGER

@<TRIPOS>ATOM
      1 C           5.4256   -8.5694   74.0436 C.2     1  LIG111      0.2402
      2 C           6.2088   -7.9643   72.9733 C.2     1  LIG111      0.2677
      3 C           5.5068   -8.9149   72.1359 C.2     1  LIG111      0.1792
      4 C           4.7280   -9.4502   73.0839 C.2     1  LIG111      0.0781
      5 O           5.4523   -8.4265   75.2615 O.2     1  LIG111     -0.2829
      6 O           7.0638   -7.0928   72.8690 O.2     1  LIG111     -0.2799
      7 O           5.6415   -9.1494   70.8310 O.2     1  LIG111     -0.5026
      8 C           3.6280  -10.4837   73.2291 C.ar    1  LIG111     -0.0104
      9 C           3.6016  -11.6581   72.4672 C.ar    1  LIG111     -0.0535
     10 C           2.5120  -12.5255   72.5458 C.ar    1  LIG111     -0.0583
     11 C           1.4701  -12.2847   73.4654 C.ar    1  LIG111     -0.0504
     12 C           1.5391  -11.1468   74.2704 C.ar    1  LIG111     -0.0583
     13 C           2.6027  -10.2484   74.1497 C.ar    1  LIG111     -0.0535
     14 C           0.2817  -13.2498   73.5793 C.3     1  LIG111     -0.0397
     15 H          -0.0986  -13.2785   74.6133 H       1  LIG111      0.0278
     16 H           0.5573  -14.2753   73.2894 H       1  LIG111      0.0278
     17 H           5.0477   -9.8148   70.5056 H       1  LIG111      0.2923
     18 H           4.4307  -11.9008   71.8110 H       1  LIG111      0.0624
     19 H           2.4643  -13.3905   71.8952 H       1  LIG111      0.0620
     20 H           0.7511  -10.9514   74.9941 H       1  LIG111      0.0620
     21 H           2.6222   -9.3547   74.7688 H       1  LIG111      0.0624
     22 H          -0.5242  -12.9024   72.9148 H       1  LIG111      0.0278
@<TRIPOS>BOND
     1    17     7    1
     2     7     3    1
     3    18     9    1
     4    19    10    1
     5     3     2    1
     6     3     4    2
     7     9    10   ar
     8     9     8   ar
     9    10    11   ar
    10     6     2    2
    11    22    14    1
    12     2     1    1
    13     4     8    1
    14     4     1    1
    15     8    13   ar
    16    16    14    1
    17    11    14    1
    18    11    12   ar
    19    14    15    1
    20     1     5    2
    21    13    12   ar
    22    13    21    1
    23    12    20    1
