@<TRIPOS>MOLECULE
CPD_03-b
 71 73 0 0 0
SMALL
GASTEIGER

@<TRIPOS>ATOM
      1 ****        3.8841   -8.7679   14.0187 H       1  TOS111      0.1396
      2 ****        4.0055   -6.6686   15.2040 H       1  TOS111      0.1400
      3 ****        8.2364   -6.4594   14.3768 H       1  TOS111      0.1387
      4 ****        8.0884   -8.6090   13.2148 H       1  TOS111      0.1470
      5 C5          4.8646   -4.4367   16.1300 C.3     1  TOS111     -0.2061
      6 C6          6.7341   -3.8585   14.5847 C.3     1  TOS111     -0.2050
      7 C7          7.2254   -5.0254   16.7785 C.3     1  TOS111     -0.2029
      8 ****        6.7670   -9.2941   10.4085 H       2  APM222      0.1263
      9 ****        5.2205  -10.4633    8.6738 H       2  APM222      0.1142
     10 ****        6.1401   -9.0860    8.0830 H       2  APM222      0.1104
     11 ****        2.7921  -10.3275    8.5633 H       2  APM222      0.1325
     12 ****        5.1009   -6.8274    7.7419 H       2  APM222      0.1639
     13 ****        3.0861   -5.6833    6.9051 H       2  APM222      0.1646
     14 ****        0.8969   -6.7518    7.0539 H       2  APM222      0.1359
     15 ****        4.0351  -10.0538   11.0491 H       2  APM222      0.2311
     16 ****       -1.5988   -9.4232    7.0142 H       2  APM222      0.2745
     17 ****       -0.5643   -8.1351    6.3935 H       2  APM222      0.2933
     18 ****        0.8213  -10.7986    9.1455 H       2  APM222      0.2945
     19 ****       -0.8012  -10.9447    8.4810 H       2  APM222      0.2736
     20 ****        7.5667   -6.2845    8.4131 H       3  PIP333      0.0800
     21 ****        7.8332   -7.8506    9.1545 H       3  PIP333      0.0991
     22 ****        9.6844   -6.3391    9.7392 H       3  PIP333      0.0978
     23 ****        8.7623   -6.7986   11.1985 H       3  PIP333      0.0932
     24 ****        8.4447   -4.1649    9.6120 H       3  PIP333      0.0873
     25 C25         9.5551   -4.1431   11.4773 C.3     3  PIP333     -0.2051
     26 ****        6.8415   -3.5336   11.4576 H       3  PIP333      0.0966
     27 ****        7.0455   -5.1873   12.1496 H       3  PIP333      0.1006
     28 ****        4.9590   -5.0333   10.8218 H       3  PIP333      0.1270
     29 ****        5.8946   -4.6121    9.3709 H       3  PIP333      0.0732
     30 S           5.7795  -10.3781   12.6583 S.O2    1  TOS111      2.6384
     31 O1          7.0875  -10.9119   12.3278 O.2     1  TOS111     -0.8749
     32 O2          4.8470  -11.2101   13.3972 O.2     1  TOS111     -0.8696
     33 C1          5.9661   -8.8371   13.5284 C.ar    1  TOS111     -0.7318
     34 C2          4.8363   -8.2566   14.0999 C.ar    1  TOS111     -0.0131
     35 C3          4.9226   -7.0354   14.7691 C.ar    1  TOS111     -0.1401
     36 C4          6.1323   -6.3339   14.8758 C.ar    1  TOS111      0.0122
     37 C5          7.2656   -6.9385   14.3078 C.ar    1  TOS111     -0.1514
     38 C6          7.1904   -8.1710   13.6422 C.ar    1  TOS111     -0.0334
     39 C7          6.2347   -4.9471   15.5812 C.3     1  TOS111     -0.0187
     40 C           5.4828   -7.5590   10.4964 C.2     2  APM222      0.2720
     41 CA          5.7216   -9.0267   10.2297 C.3     2  APM222      0.0443
     42 CB          5.3300   -9.3751    8.7617 C.3     2  APM222     -0.1221
     43 CG          4.0647   -8.6559    8.2558 C.ar    2  APM222     -0.0551
     44 CD1         2.8195   -9.2980    8.2358 C.ar    2  APM222     -0.0743
     45 CD2         4.1524   -7.3468    7.7706 C.ar    2  APM222     -0.0538
     46 CE1         1.6529   -8.6563    7.7897 C.ar    2  APM222     -0.1411
     47 CE2         3.0103   -6.6934    7.3039 C.ar    2  APM222     -0.1110
     48 CZ          1.7661   -7.3281    7.3551 C.ar    2  APM222     -0.0834
     49 CF          0.3068   -9.3742    7.7702 C.3     2  APM222      0.3405
     50 O           4.4695   -7.3207   11.1377 O.2     2  APM222     -0.3662
     51 N           5.0060   -9.8439   11.2100 N.3     2  APM222     -0.8370
     52 NG1        -0.6811   -8.9442    7.0172 N.3     2  APM222     -0.3317
     53 NG2         0.1012  -10.4422    8.5067 N.3     2  APM222     -0.3284
     54 N1          6.3071   -6.5601   10.0670 N.am    3  PIP333     -0.3341
     55 C2          7.5745   -6.8109    9.3761 C.3     3  PIP333     -0.0198
     56 C3          8.7133   -6.2322   10.2531 C.3     3  PIP333     -0.1771
     57 C4          8.4497   -4.7334   10.5617 C.3     3  PIP333     -0.1067
     58 C5          7.0519   -4.5933   11.2234 C.3     3  PIP333     -0.1839
     59 C6          5.9343   -5.1740   10.3224 C.3     3  PIP333     -0.0162
     60 ****       10.5349   -4.2270   10.9876 H       3  PIP333      0.0812
     61 ****        9.5946   -4.6792   12.4328 H       3  PIP333      0.0756
     62 ****        9.3584   -3.0802   11.6778 H       3  PIP333      0.0814
     63 ****        4.9715   -3.4404   16.5959 H       1  TOS111      0.0832
     64 ****        4.4690   -5.1155   16.9017 H       1  TOS111      0.0803
     65 ****        4.1278   -4.3345   15.3169 H       1  TOS111      0.0741
     66 ****        7.7277   -4.0996   14.1813 H       1  TOS111      0.0751
     67 ****        6.8110   -2.8749   15.0736 H       1  TOS111      0.0837
     68 ****        6.0124   -3.7652   13.7602 H       1  TOS111      0.0733
     69 ****        6.8893   -5.7883   17.4973 H       1  TOS111      0.0833
     70 ****        7.2796   -4.0571   17.3016 H       1  TOS111      0.0833
     71 ****        8.2442   -5.2809   16.4518 H       1  TOS111      0.0767
@<TRIPOS>BOND
     1    34     1    1
     2    35     2    1
     3    37     3    1
     4    38     4    1
     5    39     5    1
     6    39     6    1
     7    39     7    1
     8    41     8    1
     9    42     9    1
    10    42    10    1
    11    44    11    1
    12    45    12    1
    13    47    13    1
    14    48    14    1
    15    51    15    1
    16    52    16    1
    17    52    17    1
    18    53    18    1
    19    53    19    1
    20    55    20    1
    21    55    21    1
    22    56    22    1
    23    56    23    1
    24    57    24    1
    25    57    25    1
    26    58    26    1
    27    58    27    1
    28    59    28    1
    29    59    29    1
    30    30    33    1
    31    30    32    2
    32    30    31    2
    33    33    38   ar
    34    33    34   ar
    35    34    35   ar
    36    35    36   ar
    37    36    39    1
    38    36    37   ar
    39    37    38   ar
    40    40    50    2
    41    40    41    1
    42    41    51    1
    43    41    42    1
    44    42    43    1
    45    43    45   ar
    46    43    44   ar
    47    44    46   ar
    48    46    49    1
    49    46    48   ar
    50    48    47   ar
    51    47    45   ar
    52    49    53    1
    53    49    52    1
    54    59    54    1
    55    54    55    1
    56    55    56    1
    57    56    57    1
    58    57    58    1
    59    58    59    1
    60    40    54   am
    61    51    30    1
    62    25    60    1
    63    25    61    1
    64    25    62    1
    65     5    63    1
    66     5    64    1
    67     5    65    1
    68     6    66    1
    69     6    67    1
    70     6    68    1
    71     7    69    1
    72     7    70    1
    73     7    71    1
