@<TRIPOS>MOLECULE
CPD_66-b
 49 50 0 0 0
SMALL
GASTEIGER

@<TRIPOS>ATOM
      1 ****        5.1959   -9.7485   12.1345 H       1  APM211      0.2884
      2 ****        6.7823   -9.3047   10.3955 H       1  APM211      0.1585
      3 ****        5.2855  -10.4364    8.5592 H       1  APM211      0.1134
      4 ****        6.1860   -9.0188    8.0446 H       1  APM211      0.1577
      5 ****        2.8354  -10.3379    8.5091 H       1  APM211      0.1173
      6 ****        5.1086   -6.8059    7.7354 H       1  APM211      0.1673
      7 ****        3.0768   -5.6668    6.9334 H       1  APM211      0.1856
      8 ****        0.9006   -6.7291    7.1299 H       1  APM211      0.1562
      9 ****        3.9102   -9.8574   10.9729 H       1  APM211      0.2686
     10 ****       -1.6069   -9.4039    7.0567 H       1  APM211      0.2887
     11 ****       -0.5911   -8.1065    6.4458 H       1  APM211      0.2999
     12 ****        0.8344  -10.8521    9.0944 H       1  APM211      0.2784
     13 ****       -0.7981  -10.9605    8.4496 H       1  APM211      0.2884
     14 ****        7.5874   -6.2359    8.4596 H       2  PIP322      0.1247
     15 ****        7.8756   -7.8136    9.1873 H       2  PIP322      0.0951
     16 ****        9.6845   -6.2024    9.7345 H       2  PIP322      0.1292
     17 ****        8.8478   -6.7506   11.2155 H       2  PIP322      0.0883
     18 ****       10.8730   -3.7853   10.9829 C.3     3  SULFONYL33   -0.8018
     19 S1          9.3131   -3.5180   10.1164 S.O2    3  SULFONYL33    2.5804
     20 ****        6.8829   -3.5038   11.4999 H       2  PIP322      0.1575
     21 ****        7.0787   -5.0997   12.2754 H       2  PIP322      0.0962
     22 ****        4.9843   -5.0320   10.8854 H       2  PIP322      0.1429
     23 ****        5.9486   -4.5910    9.4628 H       2  PIP322      0.1087
     24 C           5.5001   -7.5767   10.4894 C.2     1  APM211      0.2870
     25 CA          5.7323   -9.0436   10.1852 C.3     1  APM211     -0.0844
     26 CB          5.3714   -9.3506    8.7033 C.3     1  APM211     -0.1349
     27 CG          4.0860   -8.6484    8.2212 C.ar    1  APM211     -0.1059
     28 CD1         2.8464   -9.3015    8.2035 C.ar    1  APM211     -0.0865
     29 CD2         4.1604   -7.3312    7.7619 C.ar    1  APM211     -0.0479
     30 CE1         1.6611   -8.6616    7.7931 C.ar    1  APM211     -0.1245
     31 CE2         3.0078   -6.6780    7.3244 C.ar    1  APM211     -0.0912
     32 CZ          1.7695   -7.3202    7.3915 C.ar    1  APM211     -0.0589
     33 CF          0.3123   -9.3783    7.7745 C.3     1  APM211      0.3384
     34 O           4.4725   -7.3454   11.1069 O.2     1  APM211     -0.3765
     35 N           4.9764   -9.9369   11.0938 N.4     1  APM211     -0.0888
     36 NG1        -0.6892   -8.9307    7.0495 N.3     1  APM211     -0.3119
     37 NG2         0.1072  -10.4650    8.4827 N.3     1  APM211     -0.3294
     38 N1          6.3352   -6.5559   10.1098 N.am    2  PIP322     -0.2962
     39 C2          7.6097   -6.7787    9.4176 C.3     2  PIP322     -0.0625
     40 C3          8.7337   -6.1629   10.2888 C.3     2  PIP322     -0.0142
     41 N4          8.3493   -4.7986   10.6283 N.3     2  PIP322     -0.8220
     42 C5          7.0768   -4.5711   11.3061 C.3     2  PIP322     -0.0219
     43 C6          5.9658   -5.1657   10.4034 C.3     2  PIP322     -0.0426
     44 O           8.7630   -2.2641   10.5938 O.2     3  SULFONYL33   -0.8576
     45 O           9.5509   -3.6710    8.6940 O.2     3  SULFONYL33   -0.8753
     46 ****       10.7022   -3.7609   12.0673 H       3  SULFONYL33    0.1454
     47 ****       11.5688   -2.9798   10.7099 H       3  SULFONYL33    0.1693
     48 ****       11.3250   -4.7465   10.7082 H       3  SULFONYL33    0.1323
     49 ****        5.2380  -10.9760   10.9345 H       1  APM211      0.2709
@<TRIPOS>BOND
     1    35     1    1
     2    25     2    1
     3    26     3    1
     4    26     4    1
     5    28     5    1
     6    29     6    1
     7    31     7    1
     8    32     8    1
     9    35     9    1
    10    36    10    1
    11    36    11    1
    12    37    12    1
    13    37    13    1
    14    39    14    1
    15    39    15    1
    16    40    16    1
    17    40    17    1
    18    41    19    1
    19    19    44    2
    20    42    20    1
    21    42    21    1
    22    43    22    1
    23    43    23    1
    24    24    34    2
    25    24    25    1
    26    25    35    1
    27    25    26    1
    28    26    27    1
    29    27    29   ar
    30    27    28   ar
    31    28    30   ar
    32    30    33    1
    33    30    32   ar
    34    32    31   ar
    35    31    29   ar
    36    33    37    1
    37    33    36    1
    38    43    38    1
    39    38    39    1
    40    39    40    1
    41    40    41    1
    42    41    42    1
    43    42    43    1
    44    24    38   am
    45    19    45    2
    46    19    18    1
    47    18    46    1
    48    18    47    1
    49    18    48    1
    50    35    49    1
