@<TRIPOS>MOLECULE
CPD_72-b
 55 56 0 0 0
SMALL
GASTEIGER

@<TRIPOS>ATOM
      1 C1          3.8010   -6.8540   13.5442 C.3     1  TOS111     -0.1860
      2 ****        5.5482   -5.1711   14.5740 H       1  TOS111      0.1417
      3 C3          8.2402   -5.0817   15.1271 C.3     1  TOS111     -0.1819
      4 C4          8.0903   -9.8596   13.6814 C.3     1  TOS111     -0.1964
      5 ****        9.0840   -7.5510   14.4323 H       1  TOS111      0.1400
      6 ****        7.6415   -4.1679   15.2765 H       1  TOS111      0.0908
      7 ****        9.0648   -4.8478   14.4307 H       1  TOS111      0.0907
      8 ****        6.5992   -9.4818   10.4805 H       2  APM222      0.1256
      9 ****        5.1894  -10.4552    8.8002 H       2  APM222      0.1115
     10 ****        6.1816   -9.2189    7.9897 H       2  APM222      0.1110
     11 ****        2.8608  -10.4070    8.3034 H       2  APM222      0.1370
     12 ****        5.1470   -6.8241    7.6779 H       2  APM222      0.1702
     13 ****        3.0608   -5.6098    7.1024 H       2  APM222      0.1673
     14 ****        0.8630   -6.6935    7.4079 H       2  APM222      0.1363
     15 ****        3.7833   -8.5476   10.8142 H       2  APM222      0.2336
     16 ****       -1.5988   -9.3348    7.1678 H       2  APM222      0.2732
     17 ****       -0.5867   -7.9828    6.6367 H       2  APM222      0.2944
     18 ****        0.9674  -10.9415    8.9631 H       2  APM222      0.2979
     19 ****       -0.7061  -11.0291    8.3936 H       2  APM222      0.2747
     20 N20         7.5780   -7.2550    9.6115 N.am    2  APM222     -0.3955
     21 ****        8.1434   -8.0212    9.3000 H       2  APM222      0.2353
     22 C22         8.1864   -5.9280    9.5639 C.3     2  APM222     -0.0772
     23 ****        7.5016   -5.1257    9.8848 H       2  APM222      0.1158
     24 ****        8.5077   -5.7103    8.5321 H       2  APM222      0.0725
     25 ****        9.0731   -5.9052   10.2201 H       2  APM222      0.0807
     26 S           4.9258   -9.6669   12.6554 S.O2    1  TOS111      2.5952
     27 O1          5.6824  -10.8770   12.3992 O.2     1  TOS111     -0.8782
     28 O2          3.6557   -9.8014   13.3556 O.2     1  TOS111     -0.8663
     29 C1          5.9197   -8.3849   13.4659 C.ar    1  TOS111     -0.6900
     30 C2          5.2958   -7.1573   13.7663 C.ar    1  TOS111      0.0415
     31 C3          6.0369   -6.1080   14.3202 C.ar    1  TOS111     -0.1534
     32 C4          7.4059   -6.2391   14.5583 C.ar    1  TOS111     -0.0052
     33 C5          8.0140   -7.4594   14.2693 C.ar    1  TOS111     -0.1668
     34 C6          7.2822   -8.5533   13.7893 C.ar    1  TOS111      0.0288
     35 ****        8.6643   -5.3852   16.0957 H       1  TOS111      0.0970
     36 C           6.3173   -7.4391   10.0886 C.2     2  APM222      0.2847
     37 CA          5.7758   -8.8458   10.1194 C.3     2  APM222      0.0255
     38 CB          5.3673   -9.3707    8.7156 C.3     2  APM222     -0.1222
     39 CG          4.1079   -8.6616    8.1807 C.ar    2  APM222     -0.0613
     40 CD1         2.8803   -9.3369    8.1218 C.ar    2  APM222     -0.0803
     41 CD2         4.1842   -7.3308    7.7586 C.ar    2  APM222     -0.0460
     42 CE1         1.6881   -8.6543    7.8232 C.ar    2  APM222     -0.1519
     43 CE2         3.0069   -6.6443    7.4372 C.ar    2  APM222     -0.1071
     44 CZ          1.7667   -7.2826    7.5413 C.ar    2  APM222     -0.0876
     45 CF          0.3478   -9.3795    7.8031 C.3     2  APM222      0.3364
     46 O           5.6076   -6.5368   10.4838 O.2     2  APM222     -0.3494
     47 N           4.6691   -8.9290   11.0698 N.3     2  APM222     -0.8245
     48 NG1        -0.6797   -8.8624    7.1619 N.3     2  APM222     -0.3332
     49 NG2         0.1959  -10.5225    8.4214 N.3     2  APM222     -0.3250
     50 ****        3.2766   -7.5180   12.8503 H       1  TOS111      0.0766
     51 ****        3.6879   -5.8358   13.1458 H       1  TOS111      0.0946
     52 ****        3.2990   -6.9089   14.5234 H       1  TOS111      0.1064
     53 ****        7.4844  -10.7698   13.7543 H       1  TOS111      0.1157
     54 ****        8.8077   -9.9244   14.5166 H       1  TOS111      0.0945
     55 ****        8.6588   -9.8571   12.7403 H       1  TOS111      0.0884
@<TRIPOS>BOND
     1    30     1    1
     2    31     2    1
     3    32     3    1
     4    34     4    1
     5    33     5    1
     6     3     6    1
     7     3     7    1
     8    37     8    1
     9    38     9    1
    10    38    10    1
    11    40    11    1
    12    41    12    1
    13    43    13    1
    14    44    14    1
    15    47    15    1
    16    48    16    1
    17    48    17    1
    18    49    18    1
    19    49    19    1
    20    36    20   am
    21    20    21    1
    22    20    22    1
    23    22    23    1
    24    22    24    1
    25    22    25    1
    26    26    29    1
    27    26    28    2
    28    26    27    2
    29    29    34   ar
    30    29    30   ar
    31    30    31   ar
    32    31    32   ar
    33     3    35    1
    34    32    33   ar
    35    33    34   ar
    36    36    46    2
    37    36    37    1
    38    37    47    1
    39    37    38    1
    40    38    39    1
    41    39    41   ar
    42    39    40   ar
    43    40    42   ar
    44    42    45    1
    45    42    44   ar
    46    44    43   ar
    47    43    41   ar
    48    45    49    1
    49    45    48    1
    50    47    26    1
    51     1    50    1
    52     1    51    1
    53     1    52    1
    54     4    53    1
    55     4    54    1
    56     4    55    1
