@<TRIPOS>MOLECULE
CPD_18-b
 66 70 0 0 0
SMALL
GASTEIGER

@<TRIPOS>ATOM
      1 C1          4.0886   -6.0048   14.9499 C.ar    4  NAPHTHALENE44   -0.1017
      2 C2          4.3848   -4.7645   15.5263 C.ar    4  NAPHTHALENE44   -0.1300
      3 C3          5.7006   -4.2960   15.5283 C.ar    4  NAPHTHALENE44   -0.0994
      4 C4          6.7137   -5.0556   14.9409 C.ar    4  NAPHTHALENE44   -0.1330
      5 H5          6.7817   -9.4156   10.3555 H       2  APM222      0.1261
      6 H6          5.4480  -10.4032    8.4184 H       2  APM222      0.1156
      7 H7          6.2975   -8.9094    7.9850 H       2  APM222      0.1137
      8 H8          3.0351  -10.4119    8.3968 H       2  APM222      0.1373
      9 H9          5.0619   -6.8106    7.6367 H       2  APM222      0.1544
     10 H10         2.9742   -5.6325    7.0900 H       2  APM222      0.1686
     11 H11         0.8633   -6.8058    7.2581 H       2  APM222      0.1382
     12 H12         3.9270   -9.9675   10.7079 H       2  APM222      0.2215
     13 H13        -1.5161   -9.5544    7.4673 H       2  APM222      0.2681
     14 H14        -0.6155   -8.2196    6.7911 H       2  APM222      0.2950
     15 H15         1.2073  -10.9205    9.2578 H       2  APM222      0.2969
     16 H16        -0.4629  -11.1234    8.8011 H       2  APM222      0.2679
     17 C1          6.0921   -5.2482   10.5769 C.3     3  TETRAHYDROISOQUINOLINE33    0.0356
     18 N1          6.4830   -6.6039   10.1866 N.am    3  TETRAHYDROISOQUINOLINE33   -0.3316
     19 C2          7.7375   -6.8311    9.4632 C.3     3  TETRAHYDROISOQUINOLINE33   -0.0170
     20 C3          8.8646   -6.0526   10.1840 C.3     3  TETRAHYDROISOQUINOLINE33   -0.1344
     21 C4          9.4908   -3.5878    9.9875 C.ar    3  TETRAHYDROISOQUINOLINE33   -0.1175
     22 C5          9.1323   -2.2410    9.8775 C.ar    3  TETRAHYDROISOQUINOLINE33   -0.1183
     23 C6          7.7861   -1.8716    9.9300 C.ar    3  TETRAHYDROISOQUINOLINE33   -0.1218
     24 C7          6.8035   -2.8445   10.1373 C.ar    3  TETRAHYDROISOQUINOLINE33   -0.1203
     25 C8          7.1626   -4.1889   10.2853 C.ar    3  TETRAHYDROISOQUINOLINE33   -0.0967
     26 S           5.4363  -10.3873   12.5521 S.O2    1  TOS111      2.6259
     27 O1          6.6534  -11.1570   12.3832 O.2     1  TOS111     -0.8630
     28 O2          4.3138  -10.9620   13.2678 O.2     1  TOS111     -0.8711
     29 C5          7.4305   -7.0635   13.7717 C.ar    4  NAPHTHALENE44   -0.1268
     30 C6          7.1375   -8.3141   13.2178 C.ar    4  NAPHTHALENE44   -0.0670
     31 C7          5.8311   -8.8080   13.2628 C.ar    4  NAPHTHALENE44   -0.7312
     32 C8          4.8173   -8.0346   13.8292 C.ar    4  NAPHTHALENE44    0.0354
     33 C9          5.1040   -6.7779   14.3818 C.ar    4  NAPHTHALENE44   -0.0550
     34 C10         6.4212   -6.2996   14.3628 C.ar    4  NAPHTHALENE44    0.0075
     35 H1          3.0608   -6.3556   14.9525 H       4  NAPHTHALENE44    0.1369
     36 C           5.5881   -7.5999   10.4476 C.2     2  APM222      0.2669
     37 CA          5.7703   -9.0636   10.1077 C.3     2  APM222      0.0488
     38 CB          5.4839   -9.3183    8.6032 C.3     2  APM222     -0.1202
     39 CG          4.1641   -8.6589    8.1698 C.ar    2  APM222     -0.0560
     40 CD1         2.9609   -9.3585    8.1772 C.ar    2  APM222     -0.0835
     41 CD2         4.1354   -7.3364    7.7337 C.ar    2  APM222     -0.0556
     42 CE1         1.7486   -8.7155    7.8897 C.ar    2  APM222     -0.1405
     43 CE2         2.9551   -6.6723    7.4071 C.ar    2  APM222     -0.1041
     44 CZ          1.7544   -7.3678    7.4975 C.ar    2  APM222     -0.0842
     45 CF          0.4465   -9.4843    8.0049 C.3     2  APM222      0.3393
     46 O           4.5268   -7.3337   10.9912 O.2     2  APM222     -0.3751
     47 N           4.8831   -9.8379   10.9687 N.3     2  APM222     -0.8274
     48 NG1        -0.6260   -9.0536    7.3861 N.3     2  APM222     -0.3253
     49 NG2         0.4007  -10.5790    8.7266 N.3     2  APM222     -0.3236
     50 C9          8.5046   -4.5648   10.1589 C.ar    3  TETRAHYDROISOQUINOLINE33   -0.0778
     51 H1          5.8948   -5.2104   11.6593 H       3  TETRAHYDROISOQUINOLINE33    0.1194
     52 H2          5.1683   -4.9790   10.0390 H       3  TETRAHYDROISOQUINOLINE33    0.0879
     53 ****        7.6145   -6.4151    8.4504 H       3  TETRAHYDROISOQUINOLINE33    0.0802
     54 H6          9.8220   -6.2278    9.6652 H       3  TETRAHYDROISOQUINOLINE33    0.1049
     55 H7          8.9601   -6.3923   11.2269 H       3  TETRAHYDROISOQUINOLINE33    0.1072
     56 H8         10.5371   -3.8706    9.9327 H       3  TETRAHYDROISOQUINOLINE33    0.1385
     57 H2          3.5942   -4.1690   15.9710 H       4  NAPHTHALENE44    0.1410
     58 H3          5.9345   -3.3399   15.9878 H       4  NAPHTHALENE44    0.1422
     59 H4          7.7299   -4.6738   14.9379 H       4  NAPHTHALENE44    0.1423
     60 H5          8.4519   -6.6967   13.7379 H       4  NAPHTHALENE44    0.1417
     61 H6          7.9261   -8.8967   12.7550 H       4  NAPHTHALENE44    0.1451
     62 H8          3.8019   -8.4158   13.8359 H       4  NAPHTHALENE44    0.1456
     63 H9          9.8995   -1.4836    9.7498 H       3  TETRAHYDROISOQUINOLINE33    0.1418
     64 H10         7.5036   -0.8299    9.8119 H       3  TETRAHYDROISOQUINOLINE33    0.1403
     65 H11         5.7597   -2.5491   10.1810 H       3  TETRAHYDROISOQUINOLINE33    0.1327
     66 H66         8.0582   -7.8755    9.3541 H       3  TETRAHYDROISOQUINOLINE33    0.0985
@<TRIPOS>BOND
     1    26    31    1
     2    29    30   ar
     3    29    34   ar
     4    29    60    1
     5    34     4   ar
     6    34    33   ar
     7    33     1   ar
     8    37     5    1
     9    38     6    1
    10    38     7    1
    11    40     8    1
    12    41     9    1
    13    43    10    1
    14    44    11    1
    15    47    12    1
    16    48    13    1
    17    48    14    1
    18    49    15    1
    19    49    16    1
    20    36    18   am
    21    21    22   ar
    22    21    50   ar
    23    21    56    1
    24    50    20    1
    25    50    25   ar
    26    25    17    1
    27    25    24   ar
    28    24    23   ar
    29    24    65    1
    30    33    32   ar
    31    26    28    2
    32    26    27    2
    33    32    31   ar
    34    32    62    1
    35    31    30   ar
    36    30    61    1
    37     1     2   ar
    38     1    35    1
    39    36    46    2
    40    36    37    1
    41    37    47    1
    42    37    38    1
    43    38    39    1
    44    39    41   ar
    45    39    40   ar
    46    40    42   ar
    47    42    45    1
    48    42    44   ar
    49    44    43   ar
    50    43    41   ar
    51    45    49    1
    52    45    48    1
    53    23    22   ar
    54    23    64    1
    55    22    63    1
    56    17    18    1
    57    17    51    1
    58    17    52    1
    59    18    19    1
    60    47    26    1
    61    19    20    1
    62    19    53    1
    63     2     3   ar
    64     2    57    1
    65     3     4   ar
    66     3    58    1
    67     4    59    1
    68    20    54    1
    69    20    55    1
    70    19    66    1
