#	Name:			ro17_3128
#	Creating user name:	becker
#	Creation time:		Wed Apr 19 13:40:35 2006

#	Modifying user name:	becker
#	Modification time:	Wed Apr 19 13:40:35 2006

@<TRIPOS>MOLECULE
ro17_3128
   50    54     1     0     0
SMALL
NO_CHARGES


@<TRIPOS>ATOM
      1 C           1.270000   -3.478000    0.386000 C.ar      1 <1>         0.000000 
      2 H           0.923000   -4.346000    0.940000 H         1 <1>         0.000000 
      3 C           2.344000   -3.594000   -0.497000 C.ar      1 <1>         0.000000 
      4 C           2.754000   -2.479000   -1.231000 C.ar      1 <1>         0.000000 
      5 H           3.577000   -2.593000   -1.930000 H         1 <1>         0.000000 
      6 C           2.119000   -1.239000   -1.083000 C.ar      1 <1>         0.000000 
      7 C           1.095000   -1.104000   -0.135000 C.ar      1 <1>         0.000000 
      8 C           0.644000   -2.240000    0.550000 C.ar      1 <1>         0.000000 
      9 H          -0.209000   -2.172000    1.219000 H         1 <1>         0.000000 
     10 N           0.529000    0.093000    0.160000 N.pl3     1 <1>         0.000000 
     11 C           0.264000    0.484000    1.370000 C.ar      1 <1>         0.000000 
     12 H           0.478000   -0.046000    2.299000 H         1 <1>         0.000000 
     13 N          -0.300000    1.601000    1.336000 N.ar      1 <1>         0.000000 
     14 C          -0.452000    2.029000   -0.025000 C.ar      1 <1>         0.000000 
     15 C           0.137000    1.013000   -0.700000 C.ar      1 <1>         0.000000 
     16 C           0.354000    0.853000   -2.189000 C.3       1 <1>         0.000000 
     17 H          -0.142000   -0.061000   -2.555000 H         1 <1>         0.000000 
     18 N           1.775000    0.801000   -2.514000 N.am      1 <1>         0.000000 
     19 C           2.608000   -0.119000   -1.977000 C.2       1 <1>         0.000000 
     20 O           3.803000   -0.103000   -2.230000 O.2       1 <1>         0.000000 
     21 C           2.283000    1.715000   -3.528000 C.3       1 <1>         0.000000 
     22 H           2.709000    2.610000   -3.049000 H         1 <1>         0.000000 
     23 H           3.017000    1.268000   -4.218000 H         1 <1>         0.000000 
     24 C           0.955000    2.021000   -4.253000 C.3       1 <1>         0.000000 
     25 H           0.989000    2.955000   -4.838000 H         1 <1>         0.000000 
     26 H           0.687000    1.184000   -4.920000 H         1 <1>         0.000000 
     27 C          -0.038000    2.068000   -3.072000 C.3       1 <1>         0.000000 
     28 H           0.183000    3.015000   -2.554000 H         1 <1>         0.000000 
     29 H          -1.091000    2.054000   -3.397000 H         1 <1>         0.000000 
     30 C          -1.128000    3.289000   -0.372000 C.2       1 <1>         0.000000 
     31 O          -1.916000    3.296000   -1.306000 O.2       1 <1>         0.000000 
     32 O          -0.867000    4.385000    0.358000 O.3       1 <1>         0.000000 
     33 C          -1.621000    5.565000    0.001000 C.3       1 <1>         0.000000 
     34 H          -1.552000    5.761000   -1.085000 H         1 <1>         0.000000 
     35 C          -0.956000    6.760000    0.736000 C.3       1 <1>         0.000000 
     36 H           0.093000    6.852000    0.406000 H         1 <1>         0.000000 
     37 H          -0.955000    6.569000    1.823000 H         1 <1>         0.000000 
     38 C          -1.712000    8.081000    0.438000 C.3       1 <1>         0.000000 
     39 H          -1.661000    8.301000   -0.642000 H         1 <1>         0.000000 
     40 H          -1.231000    8.914000    0.982000 H         1 <1>         0.000000 
     41 C          -3.195000    7.960000    0.875000 C.3       1 <1>         0.000000 
     42 H          -3.730000    8.894000    0.633000 H         1 <1>         0.000000 
     43 H          -3.246000    7.808000    1.967000 H         1 <1>         0.000000 
     44 C          -3.871000    6.765000    0.153000 C.3       1 <1>         0.000000 
     45 H          -4.916000    6.673000    0.497000 H         1 <1>         0.000000 
     46 H          -3.883000    6.951000   -0.935000 H         1 <1>         0.000000 
     47 C          -3.107000    5.447000    0.444000 C.3       1 <1>         0.000000 
     48 H          -3.142000    5.228000    1.524000 H         1 <1>         0.000000 
     49 H          -3.612000    4.622000   -0.083000 H         1 <1>         0.000000 
     50 Cl          3.168000   -5.129000   -0.686000 Cl        1 <1>         0.000000 
@<TRIPOS>BOND
     1    2    1 1    
     2    1    3 ar   
     3    3    4 ar   
     4    4    5 1    
     5    4    6 ar   
     6    6    7 ar   
     7    7    8 ar   
     8    8    9 1    
     9    8    1 ar   
    10    7   10 1    
    11   10   11 ar   
    12   11   12 1    
    13   11   13 ar   
    14   13   14 ar   
    15   14   15 ar   
    16   15   10 ar   
    17   15   16 1    
    18   16   17 1    
    19   16   18 1    
    20   18   19 am   
    21   19    6 1    
    22   19   20 2    
    23   18   21 1    
    24   21   22 1    
    25   21   23 1    
    26   21   24 1    
    27   24   25 1    
    28   24   26 1    
    29   24   27 1    
    30   27   28 1    
    31   27   29 1    
    32   27   16 1    
    33   14   30 1    
    34   30   31 2    
    35   30   32 1    
    36   32   33 1    
    37   33   34 1    
    38   33   35 1    
    39   35   36 1    
    40   35   37 1    
    41   35   38 1    
    42   38   39 1    
    43   38   40 1    
    44   38   41 1    
    45   41   42 1    
    46   41   43 1    
    47   41   44 1    
    48   44   45 1    
    49   44   46 1    
    50   44   47 1    
    51   47   48 1    
    52   47   49 1    
    53   47   33 1    
    54    3   50 1    
@<TRIPOS>SUBSTRUCTURE
     1 ****        2 TEMP              0 ****  ****    0 ROOT 
