#	Name:			mol23
#	Creating user name:	becker
#	Creation time:		Wed Apr 19 13:40:35 2006

#	Modifying user name:	becker
#	Modification time:	Wed Apr 19 13:40:35 2006

@<TRIPOS>MOLECULE
mol23
   40    42     1     0     0
SMALL
NO_CHARGES


@<TRIPOS>ATOM
      1 C           0.952000   -3.507000   -0.278000 C.ar      1 <1>         0.000000 
      2 H           0.596000   -4.524000   -0.410000 H         1 <1>         0.000000 
      3 C           2.320000   -3.255000   -0.154000 C.ar      1 <1>         0.000000 
      4 H           3.030000   -4.076000   -0.181000 H         1 <1>         0.000000 
      5 C           2.770000   -1.942000    0.002000 C.ar      1 <1>         0.000000 
      6 H           3.837000   -1.758000    0.079000 H         1 <1>         0.000000 
      7 C           1.867000   -0.872000    0.056000 C.ar      1 <1>         0.000000 
      8 C           0.489000   -1.130000   -0.036000 C.ar      1 <1>         0.000000 
      9 C           0.047000   -2.445000   -0.231000 C.ar      1 <1>         0.000000 
     10 H          -1.012000   -2.652000   -0.353000 H         1 <1>         0.000000 
     11 N          -0.425000   -0.134000    0.069000 N.pl3     1 <1>         0.000000 
     12 C          -1.536000   -0.200000    0.740000 C.ar      1 <1>         0.000000 
     13 H          -1.903000   -1.045000    1.321000 H         1 <1>         0.000000 
     14 N          -2.155000    0.886000    0.633000 N.ar      1 <1>         0.000000 
     15 C          -1.409000    1.802000   -0.185000 C.ar      1 <1>         0.000000 
     16 C          -0.335000    1.048000   -0.496000 C.ar      1 <1>         0.000000 
     17 C           0.844000    1.417000   -1.348000 C.3       1 <1>         0.000000 
     18 H           0.652000    2.321000   -1.941000 H         1 <1>         0.000000 
     19 H           1.067000    0.611000   -2.064000 H         1 <1>         0.000000 
     20 N           1.943000    1.601000   -0.410000 N.am      1 <1>         0.000000 
     21 C           2.449000    0.517000    0.232000 C.2       1 <1>         0.000000 
     22 O           3.412000    0.616000    0.975000 O.2       1 <1>         0.000000 
     23 C           2.541000    2.911000   -0.151000 C.3       1 <1>         0.000000 
     24 H           2.667000    3.061000    0.933000 H         1 <1>         0.000000 
     25 H           1.896000    3.728000   -0.509000 H         1 <1>         0.000000 
     26 C           3.853000    2.983000   -0.891000 C.2       1 <1>         0.000000 
     27 H           3.824000    2.901000   -1.979000 H         1 <1>         0.000000 
     28 C           5.034000    3.138000   -0.280000 C.2       1 <1>         0.000000 
     29 H           5.956000    3.182000   -0.861000 H         1 <1>         0.000000 
     30 H           5.111000    3.221000    0.804000 H         1 <1>         0.000000 
     31 C          -1.813000    3.177000   -0.517000 C.2       1 <1>         0.000000 
     32 O          -2.922000    3.549000   -0.166000 O.2       1 <1>         0.000000 
     33 O          -0.965000    3.978000   -1.178000 O.3       1 <1>         0.000000 
     34 C          -1.462000    5.306000   -1.432000 C.3       1 <1>         0.000000 
     35 H          -1.692000    5.824000   -0.486000 H         1 <1>         0.000000 
     36 H          -2.371000    5.268000   -2.056000 H         1 <1>         0.000000 
     37 C          -0.363000    6.094000   -2.184000 C.3       1 <1>         0.000000 
     38 H           0.551000    6.141000   -1.572000 H         1 <1>         0.000000 
     39 H          -0.702000    7.120000   -2.398000 H         1 <1>         0.000000 
     40 H          -0.125000    5.592000   -3.136000 H         1 <1>         0.000000 
@<TRIPOS>BOND
     1    2    1 1    
     2    1    3 ar   
     3    3    4 1    
     4    3    5 ar   
     5    5    6 1    
     6    5    7 ar   
     7    7    8 ar   
     8    8    9 ar   
     9    9   10 1    
    10    9    1 ar   
    11    8   11 1    
    12   11   12 ar   
    13   12   13 1    
    14   12   14 ar   
    15   14   15 ar   
    16   15   16 ar   
    17   16   11 ar   
    18   16   17 1    
    19   17   18 1    
    20   17   19 1    
    21   17   20 1    
    22   20   21 am   
    23   21    7 1    
    24   21   22 2    
    25   20   23 1    
    26   23   24 1    
    27   23   25 1    
    28   23   26 1    
    29   26   27 1    
    30   26   28 2    
    31   28   29 1    
    32   28   30 1    
    33   15   31 1    
    34   31   32 2    
    35   31   33 1    
    36   33   34 1    
    37   34   35 1    
    38   34   36 1    
    39   34   37 1    
    40   37   38 1    
    41   37   39 1    
    42   37   40 1    
@<TRIPOS>SUBSTRUCTURE
     1 ****        2 TEMP              0 ****  ****    0 ROOT 
