@<TRIPOS>MOLECULE
cpd_12
 52 56 0 0 0
SMALL
GASTEIGER
Energy = 0

@<TRIPOS>ATOM
      1 C1         -0.3108    2.0804   -1.1314 C.ar    1  <0>1        0.0481
      2 C2         -1.1229    1.0360   -0.7506 C.ar    1  <0>1        0.0032
      3 C3         -2.4718    1.0254   -1.1028 C.ar    1  <0>1       -0.0509
      4 C4         -2.9888    2.0995   -1.8366 C.ar    1  <0>1       -0.0427
      5 C5         -2.1601    3.1622   -2.2106 C.ar    1  <0>1        0.0430
      6 C6         -0.8071    3.1562   -1.8625 C.ar    1  <0>1       -0.0194
      7 C7         -0.3581    0.1045   -0.0045 C.ar    1  <0>1       -0.0194
      8 C8          0.9282    0.6018    0.0379 C.ar    1  <0>1        0.0062
      9 N1          0.9410    1.7936   -0.6462 N.ar    1  <0>1       -0.3603
     10 C9         -0.8896   -1.1584    0.6197 C.3     1  <0>1       -0.0172
     11 C10         0.2159   -2.1261    1.0733 C.3     1  <0>1       -0.0612
     12 C11        -0.3618   -3.3460    1.8109 C.3     1  <0>1       -0.0901
     13 N2         -1.1923   -2.9584    2.9998 N.4     1  <0>1        0.3799
     14 C12        -2.2855   -2.0301    2.5615 C.3     1  <0>1       -0.0901
     15 C13        -1.7470   -0.7896    1.8398 C.3     1  <0>1       -0.0612
     16 C14        -1.7385   -4.1900    3.6725 C.3     1  <0>1       -0.0871
     17 Cl1        -2.8177    4.4935   -3.1197 Cl      1  <0>1       -0.0835
     18 C15        -2.6555   -3.9301    4.8803 C.3     1  <0>1       -0.0479
     19 C16        -1.9261   -3.3917    6.1363 C.3     1  <0>1       -0.0260
     20 C17        -3.3627   -5.2058    5.3960 C.3     1  <0>1       -0.0260
     21 C18        -3.6633   -4.8261    6.8334 C.ar    1  <0>1       -0.0440
     22 C19        -4.6380   -5.3607    7.6758 C.ar    1  <0>1       -0.0583
     23 C20        -2.8651   -3.8269    7.2454 C.ar    1  <0>1       -0.0440
     24 C21        -4.7736   -4.8583    8.9706 C.ar    1  <0>1       -0.0615
     25 C22        -2.9824   -3.3009    8.5309 C.ar    1  <0>1       -0.0583
     26 C23        -3.9399   -3.8238    9.4017 C.ar    1  <0>1       -0.0615
     27 H1         -3.1291    0.1906   -0.8141 H       1  <0>1        0.0625
     28 H2         -4.0361    2.1076   -2.1163 H       1  <0>1        0.0632
     29 H3         -0.1483    3.9894   -2.1581 H       1  <0>1        0.0653
     30 H4          1.8311    0.1969    0.5084 H       1  <0>1        0.0810
     31 H5          1.7919    2.3975   -0.7683 H       1  <0>1        0.1653
     32 H6         -1.5283   -1.6793   -0.1322 H       1  <0>1        0.0348
     33 H7          0.8065   -2.4659    0.1897 H       1  <0>1        0.0253
     34 H8          0.9258   -1.6021    1.7546 H       1  <0>1        0.0253
     35 H9          0.4795   -4.0063    2.1274 H       1  <0>1        0.0059
     36 H10        -0.9728   -3.9394    1.0915 H       1  <0>1        0.0059
     37 H11        -2.9936   -2.5618    1.8840 H       1  <0>1        0.0059
     38 H12        -2.8832   -1.6751    3.4310 H       1  <0>1        0.0059
     39 H13        -1.1404   -0.1845    2.5537 H       1  <0>1        0.0253
     40 H14        -2.6023   -0.1461    1.5324 H       1  <0>1        0.0253
     41 H15        -0.8997   -4.8507    3.9962 H       1  <0>1        0.0062
     42 H16        -2.3214   -4.7813    2.9275 H       1  <0>1        0.0062
     43 H17        -3.4611   -3.2098    4.6040 H       1  <0>1        0.0289
     44 H18        -1.7996   -2.2878    6.1014 H       1  <0>1        0.0315
     45 H19        -0.9299   -3.8697    6.2683 H       1  <0>1        0.0315
     46 H20        -2.6860   -6.0894    5.3662 H       1  <0>1        0.0315
     47 H21        -4.2834   -5.4337    4.8152 H       1  <0>1        0.0315
     48 H22        -5.2929   -6.1745    7.3249 H       1  <0>1        0.0620
     49 H23        -5.5347   -5.2753    9.6516 H       1  <0>1        0.0618
     50 H24        -2.3258   -2.4782    8.8593 H       1  <0>1        0.0620
     51 H25        -4.0425   -3.4203   10.4230 H       1  <0>1        0.0618
     52 H26        -0.6065   -2.4712    3.6597 H       1  <0>1       -0.0818
@<TRIPOS>BOND
     1     8     9   ar
     2    12    13    1
     3     1     2   ar
     4     1     6   ar
     5     1     9   ar
     6     2     3   ar
     7     2     7   ar
     8     3    27    1
     9     3     4   ar
    10     4    28    1
    11     4     5   ar
    12     5    17    1
    13     5     6   ar
    14     6    29    1
    15     7    10    1
    16     7     8   ar
    17     8    30    1
    18     9    31    1
    19    10    32    1
    20    10    11    1
    21    10    15    1
    22    11    12    1
    23    11    33    1
    24    11    34    1
    25    12    36    1
    26    12    35    1
    27    13    16    1
    28    13    14    1
    29    13    52    1
    30    14    37    1
    31    14    38    1
    32    14    15    1
    33    15    40    1
    34    15    39    1
    35    16    42    1
    36    16    41    1
    37    16    18    1
    38    18    20    1
    39    18    43    1
    40    18    19    1
    41    19    23    1
    42    19    45    1
    43    19    44    1
    44    20    47    1
    45    20    46    1
    46    20    21    1
    47    21    22   ar
    48    21    23   ar
    49    22    48    1
    50    22    24   ar
    51    23    25   ar
    52    24    49    1
    53    24    26   ar
    54    25    26   ar
    55    25    50    1
    56    26    51    1
