@<TRIPOS>MOLECULE
cpd_22
 52 54 0 0 0
SMALL
GASTEIGER
Energy = 0

@<TRIPOS>ATOM
      1 N1         -0.4682   -3.2336    2.4574 N.4     1  <0>1        0.3814
      2 C1         -0.1067   -0.8920    0.6226 C.3     1  <0>1       -0.0404
      3 C2          1.0704   -1.5222    1.4140 C.3     1  <0>1       -0.0649
      4 C3          0.7931   -3.0226    1.6911 C.3     1  <0>1       -0.0903
      5 C4         -1.6194   -2.6278    1.7322 C.3     1  <0>1       -0.0903
      6 C5         -1.4098   -1.1172    1.4340 C.3     1  <0>1       -0.0649
      7 C6         -0.6413   -4.6850    2.7713 C.3     1  <0>1       -0.0607
      8 C7         -3.3226   -4.3691    7.0473 C.ar    1  <0>1        0.1206
      9 C8         -4.3595   -4.9834    7.7563 C.ar    1  <0>1       -0.0199
     10 C9         -2.6733   -3.2622    7.6123 C.ar    1  <0>1       -0.0199
     11 C10        -4.7597   -4.4984    9.0046 C.ar    1  <0>1       -0.0583
     12 C11        -3.0741   -2.7734    8.8599 C.ar    1  <0>1       -0.0583
     13 C12        -4.1175   -3.3875    9.5571 C.ar    1  <0>1       -0.0615
     14 H1          2.0070   -1.4196    0.8398 H       1  <0>1        0.0250
     15 H2          1.2044   -0.9980    2.3741 H       1  <0>1        0.0250
     16 H3          0.7427   -3.5544    0.7259 H       1  <0>1        0.0059
     17 H4          1.6627   -3.4238    2.2414 H       1  <0>1        0.0059
     18 H5         -1.7848   -3.1617    0.7817 H       1  <0>1        0.0059
     19 H6         -2.5461   -2.7035    2.3226 H       1  <0>1        0.0059
     20 H7         -2.2773   -0.7282    0.8775 H       1  <0>1        0.0250
     21 H8         -1.3485   -0.5671    2.3870 H       1  <0>1        0.0250
     22 H9          0.2594   -5.0484    3.2970 H       1  <0>1        0.0085
     23 H10        -0.7191   -5.2561    1.8316 H       1  <0>1        0.0085
     24 H11        -4.8591   -5.8477    7.3296 H       1  <0>1        0.0654
     25 H12        -1.8551   -2.7613    7.1069 H       1  <0>1        0.0654
     26 H13        -5.5680   -4.9835    9.5438 H       1  <0>1        0.0619
     27 H14        -2.5722   -1.9113    9.2906 H       1  <0>1        0.0619
     28 H15        -4.4279   -3.0036   10.5238 H       1  <0>1        0.0618
     29 C13         0.1732    0.6174    0.3653 C.3     1  <0>1       -0.0250
     30 H16        -0.1670   -1.4260   -0.3393 H       1  <0>1        0.0303
     31 C14        -0.8653    1.4103   -0.4523 C.ar    1  <0>1       -0.0471
     32 C15        -0.9452    2.7954   -0.2561 C.ar    1  <0>1       -0.0586
     33 C16        -1.7197    0.8182   -1.3924 C.ar    1  <0>1       -0.0586
     34 C17        -1.8431    3.5770   -0.9882 C.ar    1  <0>1       -0.0615
     35 C18        -2.6279    1.5941   -2.1186 C.ar    1  <0>1       -0.0615
     36 C19        -2.6866    2.9761   -1.9247 C.ar    1  <0>1       -0.0617
     37 H17        -0.3013    3.2825    0.4688 H       1  <0>1        0.0620
     38 H18        -1.6947   -0.2465   -1.5825 H       1  <0>1        0.0620
     39 H19        -1.8844    4.6505   -0.8309 H       1  <0>1        0.0618
     40 H20        -3.2898    1.1221   -2.8384 H       1  <0>1        0.0618
     41 H21        -3.3832    3.5793   -2.4981 H       1  <0>1        0.0618
     42 C20        -1.9423   -4.2978    4.9811 C.3     1  <0>1        0.1136
     43 C21        -1.8538   -5.1012    3.6571 C.3     1  <0>1        0.0746
     44 O1         -2.9729   -4.8869    5.7916 O.3     1  <0>1       -0.4895
     45 H22        -2.2073   -3.2514    4.7654 H       1  <0>1        0.0722
     46 H23        -0.9736   -4.3450    5.5045 H       1  <0>1        0.0722
     47 H24        -1.7239   -6.1685    3.9182 H       1  <0>1        0.0608
     48 O2         -3.0809   -4.9919    2.9157 O.3     1  <0>1       -0.3903
     49 H25        -3.8390   -5.2709    3.4198 H       1  <0>1        0.2098
     50 H26         1.1264    0.7128   -0.1770 H       1  <0>1        0.0316
     51 H27         0.2903    1.1046    1.3459 H       1  <0>1        0.0316
     52 H28        -0.3820   -2.7475    3.3362 H       1  <0>1       -0.0817
@<TRIPOS>BOND
     1     1     7    1
     2     1     5    1
     3     1     4    1
     4     1    52    1
     5     2    30    1
     6     2     6    1
     7     2     3    1
     8     2    29    1
     9     3     4    1
    10     3    14    1
    11     3    15    1
    12     4    16    1
    13     4    17    1
    14     5    18    1
    15     5    19    1
    16     5     6    1
    17     6    20    1
    18     6    21    1
    19     7    23    1
    20     7    43    1
    21     7    22    1
    22     8    44    1
    23     8     9   ar
    24     8    10   ar
    25     9    24    1
    26     9    11   ar
    27    10    25    1
    28    10    12   ar
    29    11    26    1
    30    11    13   ar
    31    12    13   ar
    32    12    27    1
    33    13    28    1
    34    29    31    1
    35    31    33   ar
    36    31    32   ar
    37    32    34   ar
    38    32    37    1
    39    33    38    1
    40    33    35   ar
    41    34    36   ar
    42    34    39    1
    43    35    40    1
    44    35    36   ar
    45    36    41    1
    46    42    43    1
    47    42    44    1
    48    42    46    1
    49    42    45    1
    50    43    47    1
    51    43    48    1
    52    48    49    1
    53    29    50    1
    54    29    51    1
