@<TRIPOS>MOLECULE
cpd_02
 41 43 0 0 0
SMALL
GASTEIGER
Energy = 0

@<TRIPOS>ATOM
      1 C1          0.2336   -0.2242    1.6599 C.3     1  <0>1       -0.0518
      2 C2          1.1985    0.4688    0.7001 C.3     1  <0>1        0.0157
      3 C3         -0.4694    1.3254   -0.8084 C.ar    1  <0>1        0.0493
      4 C4         -0.7468    2.6596   -1.1674 C.ar    1  <0>1        0.0342
      5 C5         -2.0643    3.1155   -1.3003 C.ar    1  <0>1       -0.0448
      6 C6         -3.1341    2.2322   -1.1864 C.ar    1  <0>1       -0.0422
      7 S1          0.4811    3.8343   -1.6459 S.3     1  <0>1       -0.0857
      8 C7          2.9644    3.2436   -2.4243 C.ar    1  <0>1       -0.0462
      9 C8          1.8483    2.7189   -1.7607 C.ar    1  <0>1        0.0341
     10 N1          0.7742    0.7820   -0.6805 N.pl3   1  <0>1       -0.2983
     11 C9          1.8261    1.3796   -1.3145 C.ar    1  <0>1        0.0479
     12 C10         4.0551    1.1092   -2.2957 C.ar    1  <0>1       -0.0599
     13 C11         4.0542    2.4336   -2.7277 C.ar    1  <0>1       -0.0606
     14 C12         2.9613    0.5988   -1.5913 C.ar    1  <0>1       -0.0393
     15 C13        -1.5716    0.4623   -0.6999 C.ar    1  <0>1       -0.0209
     16 C14        -2.8845    0.8978   -0.8853 C.ar    1  <0>1        0.0428
     17 C15         0.1239   -1.7454    1.4501 C.3     1  <0>1       -0.0899
     18 N2         -0.8176   -2.4194    2.4147 N.4     1  <0>1        0.3760
     19 C16        -0.7445   -3.9032    2.2608 C.3     1  <0>1       -0.1036
     20 C17        -2.2335   -1.9740    2.2279 C.3     1  <0>1       -0.1036
     21 H1         -0.5313   -2.1781    3.3506 H       1  <0>1       -0.0827
     22 H2          0.6083   -0.0585    2.6986 H       1  <0>1        0.0262
     23 H3         -0.7583    0.2723    1.6336 H       1  <0>1        0.0262
     24 H4          1.4889    1.4248    1.2026 H       1  <0>1        0.0467
     25 H5          2.1304   -0.1416    0.7018 H       1  <0>1        0.0467
     26 H6         -2.2599    4.1647   -1.5827 H       1  <0>1        0.0630
     27 H7         -4.1674    2.5882   -1.3439 H       1  <0>1        0.0632
     28 H8          2.9596    4.2912   -2.7717 H       1  <0>1        0.0629
     29 H9          4.9194    0.4606   -2.5221 H       1  <0>1        0.0618
     30 H10         4.9150    2.8408   -3.2860 H       1  <0>1        0.0618
     31 H11         2.9736   -0.4616   -1.2949 H       1  <0>1        0.0636
     32 H12        -1.3952   -0.6071   -0.5363 H       1  <0>1        0.0651
     33 Cl1        -4.1965   -0.2114   -0.7846 Cl      1  <0>1       -0.0835
     34 H13         1.1437   -2.1810    1.5714 H       1  <0>1        0.0059
     35 H14        -0.1728   -1.9691    0.4023 H       1  <0>1        0.0059
     36 H15        -1.4076   -4.4221    2.9890 H       1  <0>1        0.0023
     37 H16        -1.0518   -4.2224    1.2398 H       1  <0>1        0.0023
     38 H17         0.2892   -4.2792    2.4327 H       1  <0>1        0.0023
     39 H18        -2.9174   -2.5063    2.9268 H       1  <0>1        0.0023
     40 H19        -2.3622   -0.8875    2.4232 H       1  <0>1        0.0023
     41 H20        -2.5912   -2.1770    1.1940 H       1  <0>1        0.0023
@<TRIPOS>BOND
     1     1     2    1
     2     1    17    1
     3     1    22    1
     4     1    23    1
     5     2    10    1
     6     2    24    1
     7     2    25    1
     8     3    15   ar
     9     3     4   ar
    10     3    10    1
    11     4     5   ar
    12     4     7    1
    13     5     6   ar
    14     5    26    1
    15     6    16   ar
    16     6    27    1
    17     7     9    1
    18     8     9   ar
    19     8    13   ar
    20     8    28    1
    21     9    11   ar
    22    10    11    1
    23    11    14   ar
    24    12    13   ar
    25    12    14   ar
    26    12    29    1
    27    13    30    1
    28    14    31    1
    29    15    16   ar
    30    15    32    1
    31    16    33    1
    32    17    18    1
    33    17    34    1
    34    17    35    1
    35    18    20    1
    36    18    19    1
    37    18    21    1
    38    19    36    1
    39    19    37    1
    40    19    38    1
    41    20    39    1
    42    20    40    1
    43    20    41    1
