@<TRIPOS>MOLECULE
cpd_23
 56 59 0 0 0
SMALL
GASTEIGER
Energy = 0

@<TRIPOS>ATOM
      1 C1          3.0347    3.4257   -2.1920 C.ar    1  <0>1       -0.0258
      2 C2          3.7047    2.5378   -3.0312 C.ar    1  <0>1        0.1234
      3 C3          3.5179    1.1681   -2.8581 C.ar    1  <0>1       -0.0258
      4 C4          2.6696    0.6876   -1.8571 C.ar    1  <0>1       -0.0486
      5 C5          1.9879    1.5702   -1.0037 C.ar    1  <0>1        0.0176
      6 C6          2.1857    2.9481   -1.1905 C.ar    1  <0>1       -0.0486
      7 C7          1.0751    1.0940    0.0726 C.2     1  <0>1        0.1631
      8 O1          0.5044    1.8845    0.7937 O.2     1  <0>1       -0.2921
      9 C8          0.8867   -0.4117    0.2376 C.3     1  <0>1        0.0088
     10 C9         -0.0760   -0.7756    1.3741 C.3     1  <0>1       -0.0610
     11 C10        -0.2617   -2.2997    1.5152 C.3     1  <0>1       -0.0902
     12 N1         -1.0752   -2.7399    2.6973 N.4     1  <0>1        0.3798
     13 C11        -2.4735   -2.2118    2.6444 C.3     1  <0>1       -0.0882
     14 C12        -3.3445   -2.6848    3.8204 C.3     1  <0>1       -0.0379
     15 C13        -1.9171   -4.7777    3.9435 C.3     1  <0>1       -0.0379
     16 C14        -1.1015   -4.2337    2.7601 C.3     1  <0>1       -0.0882
     17 C15        -3.3422   -4.2103    3.9861 C.3     1  <0>1        0.1089
     18 F1          4.5073    2.9903   -3.9793 F       1  <0>1       -0.2055
     19 C16        -4.1909   -4.8527    2.8647 C.2     1  <0>1        0.2377
     20 N2         -5.2204   -5.5202    3.4763 N.am    1  <0>1       -0.2978
     21 O2         -4.0100   -4.7977    1.6725 O.2     1  <0>1       -0.2734
     22 H1         -5.9147   -6.0271    2.9106 H       1  <0>1        0.1503
     23 H2          3.1800    4.5103   -2.3241 H       1  <0>1        0.0646
     24 H3          4.0462    0.4633   -3.5217 H       1  <0>1        0.0646
     25 H4          2.5489   -0.4037   -1.7554 H       1  <0>1        0.0625
     26 H5          1.6671    3.6726   -0.5393 H       1  <0>1        0.0625
     27 H6          0.4954   -0.8396   -0.7140 H       1  <0>1        0.0344
     28 H7          1.8753   -0.8854    0.4383 H       1  <0>1        0.0344
     29 H8          0.3090   -0.3604    2.3340 H       1  <0>1        0.0251
     30 H9         -1.0613   -0.2936    1.1804 H       1  <0>1        0.0251
     31 H10         0.7523   -2.7616    1.5786 H       1  <0>1        0.0059
     32 H11        -0.7165   -2.6885    0.5755 H       1  <0>1        0.0059
     33 H12        -2.9573   -2.5080    1.6855 H       1  <0>1        0.0060
     34 H13        -2.4687   -1.0980    2.6502 H       1  <0>1        0.0060
     35 H14        -2.9834   -2.1841    4.7428 H       1  <0>1        0.0272
     36 H15        -4.3898   -2.3261    3.6758 H       1  <0>1        0.0272
     37 H16        -1.9601   -5.8902    3.8862 H       1  <0>1        0.0272
     38 H17        -1.3681   -4.5485    4.8800 H       1  <0>1        0.0272
     39 H18        -1.5102   -4.6500    1.8117 H       1  <0>1        0.0060
     40 H19        -0.0612   -4.6304    2.8380 H       1  <0>1        0.0060
     41 C17        -5.2701   -5.4716    4.9177 C.3     1  <0>1        0.0793
     42 N3         -4.0900   -4.6496    5.1812 N.pl3   1  <0>1       -0.3000
     43 C18        -3.8070   -4.3788    6.5384 C.ar    1  <0>1        0.0317
     44 C19        -4.6308   -4.8814    7.5628 C.ar    1  <0>1       -0.0406
     45 C20        -4.3700   -4.6265    8.9102 C.ar    1  <0>1       -0.0600
     46 C21        -3.2729   -3.8569    9.2794 C.ar    1  <0>1       -0.0616
     47 C22        -2.4412   -3.3447    8.2887 C.ar    1  <0>1       -0.0600
     48 C23        -2.7063   -3.6034    6.9429 C.ar    1  <0>1       -0.0406
     49 H20        -6.2148   -4.9941    5.2648 H       1  <0>1        0.0671
     50 H21        -5.1887   -6.4938    5.3518 H       1  <0>1        0.0671
     51 H22        -5.5140   -5.4978    7.3368 H       1  <0>1        0.0636
     52 H23        -5.0383   -5.0364    9.6881 H       1  <0>1        0.0618
     53 H24        -3.0644   -3.6525   10.3437 H       1  <0>1        0.0618
     54 H25        -1.5666   -2.7325    8.5695 H       1  <0>1        0.0618
     55 H26        -2.0110   -3.1720    6.2114 H       1  <0>1        0.0636
     56 H27        -0.6356   -2.3878    3.5332 H       1  <0>1       -0.0818
@<TRIPOS>BOND
     1    11    12    1
     2    19    20   am
     3    41    42    1
     4     1     2   ar
     5     1    23    1
     6     1     6   ar
     7     2    18    1
     8     2     3   ar
     9     3    24    1
    10     3     4   ar
    11     4    25    1
    12     4     5   ar
    13     5     6   ar
    14     5     7    1
    15     6    26    1
    16     7     9    1
    17     7     8    2
    18     9    27    1
    19     9    28    1
    20     9    10    1
    21    10    11    1
    22    10    30    1
    23    10    29    1
    24    11    32    1
    25    11    31    1
    26    12    16    1
    27    12    56    1
    28    12    13    1
    29    13    33    1
    30    13    34    1
    31    13    14    1
    32    14    17    1
    33    14    36    1
    34    14    35    1
    35    15    16    1
    36    15    37    1
    37    15    38    1
    38    15    17    1
    39    16    39    1
    40    16    40    1
    41    17    19    1
    42    17    42    1
    43    19    21    2
    44    20    22    1
    45    20    41    1
    46    41    50    1
    47    41    49    1
    48    42    43    1
    49    43    48   ar
    50    43    44   ar
    51    44    51    1
    52    44    45   ar
    53    45    46   ar
    54    45    52    1
    55    46    47   ar
    56    46    53    1
    57    47    48   ar
    58    47    54    1
    59    48    55    1
