@<TRIPOS>MOLECULE
cpd_07
 42 45 0 0 0
SMALL
GASTEIGER
Energy = 0

@<TRIPOS>ATOM
      1 C1          0.1038    0.0624   -0.0757 C.2     1  <0>1        0.3248
      2 C2          3.1710    0.6920   -1.9072 C.ar    1  <0>1       -0.0071
      3 C3          3.8807    1.6396   -2.6449 C.ar    1  <0>1       -0.0574
      4 C4          3.5220    2.9848   -2.5810 C.ar    1  <0>1       -0.0580
      5 C5          2.4506    3.3794   -1.7804 C.ar    1  <0>1       -0.0150
      6 C6          1.7294    2.4329   -1.0474 C.ar    1  <0>1        0.1789
      7 C7          2.0922    1.0747   -1.1038 C.ar    1  <0>1        0.2183
      8 O1          0.6920    2.8653   -0.2685 O.3     1  <0>1       -0.4508
      9 N1          1.4184    0.1124   -0.3676 N.2     1  <0>1       -0.0376
     10 C8         -0.7978    1.0381   -0.7558 C.ar    1  <0>1        0.1091
     11 C9         -0.4689    2.4003   -0.8236 C.ar    1  <0>1        0.1436
     12 C10        -1.3265    3.2882   -1.4821 C.ar    1  <0>1       -0.0171
     13 C11        -2.4997    2.8221   -2.0845 C.ar    1  <0>1       -0.0399
     14 C12        -2.8169    1.4655   -2.0310 C.ar    1  <0>1        0.0420
     15 C13        -1.9713    0.5818   -1.3672 C.ar    1  <0>1       -0.0249
     16 C14         0.5168   -2.0114    1.0921 C.3     1  <0>1        0.0659
     17 N2         -0.3555   -0.8830    0.7777 N.pl3   1  <0>1       -0.2236
     18 C15        -0.2807   -3.1813    1.6686 C.3     1  <0>1       -0.0537
     19 C16        -1.3569   -0.4702    1.7587 C.3     1  <0>1        0.0659
     20 C17        -2.1307   -1.6719    2.2954 C.3     1  <0>1       -0.0537
     21 N3         -1.2029   -2.7479    2.7715 N.4     1  <0>1        0.3826
     22 C18        -1.9837   -3.9166    3.2794 C.3     1  <0>1       -0.1029
     23 H1         -0.6469   -2.3795    3.5273 H       1  <0>1       -0.0819
     24 Cl1        -4.2367    0.8346   -2.7747 Cl      1  <0>1       -0.0835
     25 H2          3.4675   -0.3689   -1.9589 H       1  <0>1        0.0662
     26 H3          4.7296    1.3260   -3.2760 H       1  <0>1        0.0619
     27 H4          4.0858    3.7354   -3.1608 H       1  <0>1        0.0619
     28 H5          2.1706    4.4448   -1.7290 H       1  <0>1        0.0656
     29 H6         -1.0679    4.3598   -1.5391 H       1  <0>1        0.0655
     30 H7         -3.1670    3.5243   -2.6123 H       1  <0>1        0.0633
     31 H8         -2.2232   -0.4909   -1.3441 H       1  <0>1        0.0642
     32 H9          1.0585   -2.3720    0.1866 H       1  <0>1        0.0707
     33 H10         1.2952   -1.7066    1.8304 H       1  <0>1        0.0707
     34 H11         0.4251   -3.9658    2.0287 H       1  <0>1        0.0095
     35 H12        -0.8737   -3.6451    0.8456 H       1  <0>1        0.0095
     36 H13        -0.8651    0.0554    2.6101 H       1  <0>1        0.0707
     37 H14        -2.0887    0.2527    1.3325 H       1  <0>1        0.0707
     38 H15        -2.7874   -2.0668    1.4851 H       1  <0>1        0.0095
     39 H16        -2.8067   -1.3387    3.1171 H       1  <0>1        0.0095
     40 H17        -2.6562   -3.6217    4.1162 H       1  <0>1        0.0023
     41 H18        -2.6176   -4.3639    2.4816 H       1  <0>1        0.0023
     42 H19        -1.3115   -4.7171    3.6624 H       1  <0>1        0.0023
@<TRIPOS>BOND
     1     1     9    2
     2     1    10    1
     3     1    17    1
     4     2     3   ar
     5     2     7   ar
     6     2    25    1
     7     3     4   ar
     8     3    26    1
     9     4     5   ar
    10     4    27    1
    11     5     6   ar
    12     5    28    1
    13     6     7   ar
    14     6     8    1
    15     7     9    1
    16     8    11    1
    17    10    15   ar
    18    10    11   ar
    19    11    12   ar
    20    12    13   ar
    21    12    29    1
    22    13    14   ar
    23    13    30    1
    24    14    15   ar
    25    14    24    1
    26    15    31    1
    27    16    17    1
    28    16    18    1
    29    16    32    1
    30    16    33    1
    31    17    19    1
    32    18    21    1
    33    18    34    1
    34    18    35    1
    35    19    20    1
    36    19    36    1
    37    19    37    1
    38    20    21    1
    39    20    38    1
    40    20    39    1
    41    21    22    1
    42    21    23    1
    43    22    40    1
    44    22    41    1
    45    22    42    1
