@<TRIPOS>MOLECULE
cpd_09
 47 50 0 0 0
SMALL
GASTEIGER
Energy = 0

@<TRIPOS>ATOM
      1 Cl1        -4.5979    1.4936   -2.2045 Cl      1  <0>1       -0.0835
      2 C1         -2.9743    1.7003   -1.6734 C.ar    1  <0>1        0.0413
      3 C2         -2.3810    2.9631   -1.6785 C.ar    1  <0>1       -0.0431
      4 C3         -1.0632    3.1045   -1.2383 C.ar    1  <0>1       -0.0563
      5 C4         -0.3619    1.9823   -0.7954 C.ar    1  <0>1       -0.0352
      6 C5         -0.9366    0.7673   -0.7791 C.ar    1  <0>1       -0.0251
      7 C6         -2.2482    0.5959   -1.2252 C.ar    1  <0>1       -0.0384
      8 C7          1.0760    1.9499   -0.2944 C.3     1  <0>1        0.0113
      9 C8          0.0167   -0.2908   -0.2480 C.3     1  <0>1        0.0366
     10 C9          1.1219    0.5696    0.4223 C.3     1  <0>1       -0.0223
     11 C10         2.1327    2.1483   -1.3596 C.ar    1  <0>1       -0.0399
     12 N1         -0.6307   -1.2595    0.6508 N.3     1  <0>1       -0.2989
     13 C11         2.8931    3.3271   -1.3685 C.ar    1  <0>1       -0.0580
     14 C12         3.8668    3.5445   -2.3434 C.ar    1  <0>1       -0.0615
     15 C13         4.0999    2.5840   -3.3252 C.ar    1  <0>1       -0.0617
     16 C14         3.3525    1.4083   -3.3305 C.ar    1  <0>1       -0.0615
     17 C15         2.3767    1.1937   -2.3564 C.ar    1  <0>1       -0.0580
     18 C16        -1.3614   -0.7103    1.7969 C.3     1  <0>1       -0.0154
     19 C17         0.2544   -2.3502    1.0570 C.3     1  <0>1       -0.0154
     20 C18        -0.5363   -3.4672    1.7524 C.3     1  <0>1       -0.0778
     21 C19        -2.1867   -1.8041    2.4874 C.3     1  <0>1       -0.0778
     22 N2         -1.3185   -2.9452    2.9170 N.4     1  <0>1        0.3795
     23 C20        -2.1422   -4.0320    3.5266 C.3     1  <0>1       -0.1031
     24 H1         -2.9455    3.8413   -2.0339 H       1  <0>1        0.0632
     25 H2         -0.5760    4.0945   -1.2492 H       1  <0>1        0.0621
     26 H3         -2.7098   -0.4040   -1.2272 H       1  <0>1        0.0635
     27 H4          1.1919    2.7472    0.4776 H       1  <0>1        0.0398
     28 H5          0.4319   -0.8380   -1.1211 H       1  <0>1        0.0512
     29 H6          2.1252    0.0927    0.3669 H       1  <0>1        0.0293
     30 H7          0.8947    0.7258    1.5002 H       1  <0>1        0.0293
     31 H8          2.7240    4.1035   -0.6035 H       1  <0>1        0.0620
     32 H9          4.4541    4.4786   -2.3384 H       1  <0>1        0.0618
     33 H10         4.8691    2.7562   -4.0972 H       1  <0>1        0.0618
     34 H11         3.5301    0.6501   -4.1120 H       1  <0>1        0.0618
     35 H12         1.7914    0.2631   -2.3960 H       1  <0>1        0.0620
     36 H13        -0.6594   -0.2600    2.5290 H       1  <0>1        0.0408
     37 H14        -2.0447    0.0989    1.4659 H       1  <0>1        0.0408
     38 H15         0.7635   -2.7722    0.1640 H       1  <0>1        0.0408
     39 H16         1.0495   -1.9677    1.7319 H       1  <0>1        0.0408
     40 H17         0.1666   -4.2690    2.0786 H       1  <0>1        0.0071
     41 H18        -1.2240   -3.9330    1.0083 H       1  <0>1        0.0071
     42 H19        -2.9716   -2.1615    1.7806 H       1  <0>1        0.0071
     43 H20        -2.7225   -1.3667    3.3620 H       1  <0>1        0.0071
     44 H21        -2.7099   -3.6623    4.4101 H       1  <0>1        0.0023
     45 H22        -2.8801   -4.4426    2.8017 H       1  <0>1        0.0023
     46 H23        -1.5052   -4.8771    3.8723 H       1  <0>1        0.0023
     47 H24        -0.6704   -2.6093    3.6122 H       1  <0>1       -0.0821
@<TRIPOS>BOND
     1     1     2    1
     2     2     3   ar
     3     2     7   ar
     4     3     4   ar
     5     3    24    1
     6     4     5   ar
     7     4    25    1
     8     5     6   ar
     9     5     8    1
    10     6     7   ar
    11     6     9    1
    12     7    26    1
    13     8    11    1
    14     8    10    1
    15     8    27    1
    16     9    12    1
    17     9    10    1
    18     9    28    1
    19    10    29    1
    20    10    30    1
    21    11    13   ar
    22    11    17   ar
    23    12    18    1
    24    12    19    1
    25    13    14   ar
    26    13    31    1
    27    14    15   ar
    28    14    32    1
    29    15    16   ar
    30    15    33    1
    31    16    17   ar
    32    16    34    1
    33    17    35    1
    34    18    21    1
    35    18    36    1
    36    18    37    1
    37    19    20    1
    38    19    38    1
    39    19    39    1
    40    20    22    1
    41    20    40    1
    42    20    41    1
    43    21    22    1
    44    21    42    1
    45    21    43    1
    46    22    23    1
    47    23    44    1
    48    23    45    1
    49    23    46    1
    50    22    47    1
