@<TRIPOS>MOLECULE
cpd_39
 43 46 0 0 0
SMALL
GASTEIGER
Energy = 0

@<TRIPOS>ATOM
      1 C1         -0.2930    0.9549    0.2562 C.ar    1  <0>1       -0.0393
      2 C2         -0.2013    2.2080   -0.3539 C.ar    1  <0>1       -0.0416
      3 C3         -1.4529    0.1674    0.1382 C.ar    1  <0>1        0.0296
      4 C4         -1.2621    2.7018   -1.1071 C.ar    1  <0>1        0.0411
      5 C5         -2.5077    0.6851   -0.6332 C.ar    1  <0>1       -0.0393
      6 C6         -2.4146    1.9361   -1.2503 C.ar    1  <0>1       -0.0416
      7 Cl1        -1.1449    4.2713   -1.8723 Cl      1  <0>1       -0.0835
      8 N1         -1.6007   -1.0392    0.7254 N.pl3   1  <0>1       -0.3334
      9 C7         -2.5880   -0.9347    1.8017 C.3     1  <0>1       -0.0027
     10 C8         -0.3356   -1.7159    1.0010 C.3     1  <0>1       -0.0027
     11 C9         -2.8149   -2.3061    2.4446 C.3     1  <0>1       -0.0740
     12 C10        -0.6081   -3.0717    1.6530 C.3     1  <0>1       -0.0740
     13 N2         -1.5211   -2.9573    2.8498 N.4     1  <0>1        0.3844
     14 C11        -1.7169   -4.2899    3.4387 C.3     1  <0>1       -0.0622
     15 C12        -2.7673   -4.3809    4.5070 C.ar    1  <0>1       -0.0373
     16 C13        -4.0386   -4.8887    4.2895 C.ar    1  <0>1        0.0055
     17 C14        -2.6943   -4.0430    5.8885 C.ar    1  <0>1        0.0200
     18 N3         -4.7133   -4.8504    5.4866 N.ar    1  <0>1       -0.3456
     19 C15        -3.9128   -4.3338    6.4781 C.ar    1  <0>1        0.1383
     20 C16        -1.6722   -3.5168    6.6845 C.ar    1  <0>1       -0.0494
     21 H1         -5.7327   -5.1892    5.5982 H       1  <0>1        0.1668
     22 N4         -4.1998   -4.1373    7.7780 N.ar    1  <0>1       -0.2375
     23 C17        -1.9500   -3.3119    8.0413 C.ar    1  <0>1       -0.0429
     24 C18        -3.2151   -3.6314    8.5473 C.ar    1  <0>1        0.0299
     25 H2         -1.0787   -2.3706    3.5398 H       1  <0>1       -0.0812
     26 H3          0.5619    0.6256    0.8356 H       1  <0>1        0.0636
     27 H4          0.6988    2.8020   -0.2445 H       1  <0>1        0.0633
     28 H5         -3.4118    0.1031   -0.7706 H       1  <0>1        0.0636
     29 H6         -3.2414    2.3111   -1.8426 H       1  <0>1        0.0633
     30 H7         -3.5552   -0.5581    1.4374 H       1  <0>1        0.0445
     31 H8         -2.2482   -0.2317    2.5766 H       1  <0>1        0.0445
     32 H9          0.2867   -1.1430    1.7042 H       1  <0>1        0.0445
     33 H10         0.2506   -1.8654    0.0823 H       1  <0>1        0.0445
     34 H11        -3.3488   -2.9496    1.7298 H       1  <0>1        0.0074
     35 H12        -3.4807   -2.1824    3.3113 H       1  <0>1        0.0074
     36 H13         0.3489   -3.5315    1.9405 H       1  <0>1        0.0074
     37 H14        -1.0586   -3.7368    0.9014 H       1  <0>1        0.0074
     38 H15        -0.7696   -4.6635    3.8544 H       1  <0>1        0.0107
     39 H16        -1.9941   -5.0014    2.6469 H       1  <0>1        0.0107
     40 H17        -4.4967   -5.2759    3.3807 H       1  <0>1        0.0810
     41 H18        -0.6933   -3.2821    6.2822 H       1  <0>1        0.0625
     42 H19        -1.1928   -2.9121    8.7061 H       1  <0>1        0.0633
     43 H20        -3.4439   -3.4797    9.5960 H       1  <0>1        0.0830
@<TRIPOS>BOND
     1    12    13    1
     2     1     3   ar
     3     1    26    1
     4     1     2   ar
     5     2     4   ar
     6     2    27    1
     7     3     8    1
     8     3     5   ar
     9     4     6   ar
    10     4     7    1
    11     5    28    1
    12     5     6   ar
    13     6    29    1
    14     8    10    1
    15     8     9    1
    16     9    11    1
    17     9    30    1
    18     9    31    1
    19    10    33    1
    20    10    12    1
    21    10    32    1
    22    11    34    1
    23    11    13    1
    24    11    35    1
    25    12    37    1
    26    12    36    1
    27    13    14    1
    28    13    25    1
    29    14    39    1
    30    14    38    1
    31    14    15    1
    32    15    16   ar
    33    15    17   ar
    34    16    40    1
    35    16    18   ar
    36    17    19   ar
    37    17    20   ar
    38    18    21    1
    39    18    19   ar
    40    19    22   ar
    41    20    41    1
    42    20    23   ar
    43    22    24   ar
    44    23    24   ar
    45    23    42    1
    46    24    43    1
