@<TRIPOS>MOLECULE
cpd_34
 45 48 0 0 0
SMALL
GASTEIGER
Energy = 0

@<TRIPOS>ATOM
      1 C1          3.1175    0.8327   -2.4372 C.ar    1  <0>1       -0.0575
      2 C2          3.8534    1.7862   -3.1381 C.ar    1  <0>1       -0.0614
      3 C3          3.6833    3.1380   -2.8590 C.ar    1  <0>1       -0.0607
      4 C4          2.7727    3.5257   -1.8790 C.ar    1  <0>1       -0.0477
      5 C5          2.0278    2.5751   -1.1721 C.ar    1  <0>1        0.0160
      6 C6          2.1937    1.2015   -1.4422 C.ar    1  <0>1       -0.0318
      7 S1          0.9019    3.2439    0.0237 S.3     1  <0>1       -0.0888
      8 C7          1.4818    0.0467   -0.7625 C.3     1  <0>1       -0.0068
      9 C8          0.3001    0.3215    0.1855 C.3     1  <0>1        0.0406
     10 C9         -0.7195    1.1372   -0.5867 C.ar    1  <0>1       -0.0149
     11 C10        -0.5394    2.5215   -0.6915 C.ar    1  <0>1        0.0175
     12 C11        -1.4539    3.3132   -1.3869 C.ar    1  <0>1       -0.0463
     13 C12        -2.5637    2.7268   -1.9984 C.ar    1  <0>1       -0.0423
     14 C13        -2.7421    1.3466   -1.9231 C.ar    1  <0>1        0.0413
     15 C14        -1.8239    0.5562   -1.2301 C.ar    1  <0>1       -0.0376
     16 Cl1        -4.0982    0.6007   -2.6760 Cl      1  <0>1       -0.0835
     17 C15         0.6102   -1.8992    1.2661 C.3     1  <0>1       -0.0154
     18 N1         -0.3286   -0.9112    0.7229 N.3     1  <0>1       -0.2986
     19 C16        -0.1138   -3.1582    1.7676 C.3     1  <0>1       -0.0778
     20 C17        -1.3109   -0.5674    1.7624 C.3     1  <0>1       -0.0154
     21 C18        -2.0826   -1.7995    2.2505 C.3     1  <0>1       -0.0778
     22 N2         -1.1491   -2.8311    2.7937 N.4     1  <0>1        0.3795
     23 C19        -1.8960   -4.0575    3.2054 C.3     1  <0>1       -0.1031
     24 H1         -0.6802   -2.4474    3.6245 H       1  <0>1       -0.0821
     25 H2          3.2752   -0.2331   -2.6762 H       1  <0>1        0.0621
     26 H3          4.5726    1.4712   -3.9138 H       1  <0>1        0.0618
     27 H4          4.2640    3.8972   -3.4106 H       1  <0>1        0.0618
     28 H5          2.6398    4.5996   -1.6647 H       1  <0>1        0.0629
     29 H6          1.1261   -0.6515   -1.5567 H       1  <0>1        0.0332
     30 H7          2.2713   -0.4981   -0.1959 H       1  <0>1        0.0332
     31 H8          0.6798    0.8984    1.0561 H       1  <0>1        0.0516
     32 H9         -1.2934    4.4023   -1.4625 H       1  <0>1        0.0629
     33 H10        -3.2870    3.3511   -2.5498 H       1  <0>1        0.0632
     34 H11        -1.9781   -0.5340   -1.1989 H       1  <0>1        0.0636
     35 H12         1.3224   -2.2177    0.4773 H       1  <0>1        0.0408
     36 H13         1.2089   -1.4500    2.0877 H       1  <0>1        0.0408
     37 H14         0.6350   -3.8734    2.1818 H       1  <0>1        0.0071
     38 H15        -0.5872   -3.6673    0.8955 H       1  <0>1        0.0071
     39 H16        -0.8028   -0.0805    2.6229 H       1  <0>1        0.0408
     40 H17        -2.0426    0.1714    1.3745 H       1  <0>1        0.0408
     41 H18        -2.6706   -2.2165    1.3999 H       1  <0>1        0.0071
     42 H19        -2.8213   -1.4909    3.0267 H       1  <0>1        0.0071
     43 H20        -2.6560   -3.8255    3.9851 H       1  <0>1        0.0023
     44 H21        -2.4285   -4.5211    2.3452 H       1  <0>1        0.0023
     45 H22        -1.2103   -4.8253    3.6291 H       1  <0>1        0.0023
@<TRIPOS>BOND
     1     1     2   ar
     2     1     6   ar
     3     1    25    1
     4     2     3   ar
     5     2    26    1
     6     3     4   ar
     7     3    27    1
     8     4     5   ar
     9     4    28    1
    10     5     6   ar
    11     5     7    1
    12     6     8    1
    13     7    11    1
    14     8     9    1
    15     8    29    1
    16     8    30    1
    17     9    10    1
    18     9    18    1
    19     9    31    1
    20    10    11   ar
    21    10    15   ar
    22    11    12   ar
    23    12    13   ar
    24    12    32    1
    25    13    14   ar
    26    13    33    1
    27    14    15   ar
    28    14    16    1
    29    15    34    1
    30    17    18    1
    31    17    19    1
    32    17    35    1
    33    17    36    1
    34    18    20    1
    35    19    22    1
    36    19    37    1
    37    19    38    1
    38    20    21    1
    39    20    39    1
    40    20    40    1
    41    21    22    1
    42    21    41    1
    43    21    42    1
    44    22    23    1
    45    22    24    1
    46    23    43    1
    47    23    44    1
    48    23    45    1
