@<TRIPOS>MOLECULE
cpd_14
 57 61 0 0 0
SMALL
GASTEIGER
Energy = 0

@<TRIPOS>ATOM
      1 C1          0.9759   -1.4835    1.5038 C.3     1  <0>1       -0.0274
      2 C2          0.2422   -2.8418    1.5194 C.3     1  <0>1       -0.0872
      3 N1         -0.7148   -3.1027    2.6534 N.4     1  <0>1        0.3799
      4 C3         -2.0948   -2.5796    2.3677 C.3     1  <0>1       -0.0882
      5 C4         -3.0873   -2.8597    3.5103 C.3     1  <0>1       -0.0379
      6 C5         -3.1391   -4.3447    3.8941 C.3     1  <0>1        0.1089
      7 C6         -1.7314   -4.9193    4.0953 C.3     1  <0>1       -0.0379
      8 C7         -0.7914   -4.5767    2.9284 C.3     1  <0>1       -0.0882
      9 N2         -4.0361   -4.6118    5.0243 N.pl3   1  <0>1       -0.3000
     10 C8         -3.8389   -5.1320    2.7741 C.2     1  <0>1        0.2377
     11 C9         -5.1948   -5.4541    4.7271 C.3     1  <0>1        0.0793
     12 C10        -3.9110   -4.1554    6.3531 C.ar    1  <0>1        0.0317
     13 C11        -2.8505   -3.3368    6.7816 C.ar    1  <0>1       -0.0406
     14 C12        -4.8635   -4.5071    7.3288 C.ar    1  <0>1       -0.0406
     15 C13        -2.7450   -2.8965    8.1020 C.ar    1  <0>1       -0.0600
     16 N3         -4.9567   -5.7053    3.3243 N.am    1  <0>1       -0.2978
     17 H1          1.7334   -1.5136    0.6843 H       1  <0>1        0.0284
     18 H2          1.5599   -1.3787    2.4462 H       1  <0>1        0.0284
     19 H3         -0.2651   -3.0045    0.5416 H       1  <0>1        0.0060
     20 H4          1.0458   -3.6156    1.5553 H       1  <0>1        0.0060
     21 H5         -2.0734   -1.4817    2.1970 H       1  <0>1        0.0060
     22 H6         -2.4841   -3.0178    1.4224 H       1  <0>1        0.0060
     23 H7         -2.8030   -2.2328    4.3813 H       1  <0>1        0.0272
     24 H8         -4.1038   -2.5158    3.2110 H       1  <0>1        0.0272
     25 H9         -1.2771   -4.5430    5.0351 H       1  <0>1        0.0272
     26 H10        -1.7918   -6.0257    4.2122 H       1  <0>1        0.0272
     27 H11         0.2225   -4.9702    3.1787 H       1  <0>1        0.0060
     28 H12        -1.1081   -5.1245    2.0133 H       1  <0>1        0.0060
     29 H13        -2.0632   -3.0113    6.0930 H       1  <0>1        0.0636
     30 H14        -5.7276   -5.1428    7.0843 H       1  <0>1        0.0636
     31 H15        -1.9007   -2.2547    8.4080 H       1  <0>1        0.0618
     32 H16        -6.1625   -4.9232    4.8762 H       1  <0>1        0.0671
     33 H17        -5.1963   -6.4054    5.3050 H       1  <0>1        0.0671
     34 H18        -5.5671   -6.2805    2.7287 H       1  <0>1        0.1503
     35 C14        -4.7632   -4.0694    8.6487 C.ar    1  <0>1       -0.0600
     36 C15        -3.7019   -3.2612    9.0418 C.ar    1  <0>1       -0.0616
     37 H19        -5.5274   -4.3643    9.3884 H       1  <0>1        0.0618
     38 H20        -3.6210   -2.9159   10.0865 H       1  <0>1        0.0618
     39 O1         -3.4269   -5.2571    1.4422 O.2     1  <0>1       -0.2734
     40 C16        -1.2904    0.6853   -0.3161 C.ar    1  <0>1        0.1625
     41 C17        -0.9081    1.9644    0.1120 C.ar    1  <0>1        0.1621
     42 C18        -1.5712    3.0902   -0.3769 C.ar    1  <0>1       -0.0163
     43 C19        -2.6010    2.9492   -1.3070 C.ar    1  <0>1       -0.0581
     44 C20        -2.9692    1.6791   -1.7505 C.ar    1  <0>1       -0.0581
     45 C21        -2.3149    0.5501   -1.2542 C.ar    1  <0>1       -0.0163
     46 O2          0.1165    2.1435    0.9928 O.3     1  <0>1       -0.4846
     47 O3         -0.6799   -0.4390    0.1581 O.3     1  <0>1       -0.4819
     48 C22         0.9743    1.0196    1.0930 C.3     1  <0>1        0.1264
     49 C23         0.1196   -0.2303    1.3152 C.3     1  <0>1        0.1324
     50 H21         1.5620    0.9104    0.1513 H       1  <0>1        0.0734
     51 H22         1.6720    1.1549    1.9524 H       1  <0>1        0.0734
     52 H23        -0.5238   -0.0784    2.2097 H       1  <0>1        0.0767
     53 H24        -1.2714    4.0952   -0.0356 H       1  <0>1        0.0655
     54 H25        -3.1188    3.8425   -1.6973 H       1  <0>1        0.0619
     55 H26        -3.7794    1.5694   -2.4928 H       1  <0>1        0.0619
     56 H27        -2.6115   -0.4519   -1.6073 H       1  <0>1        0.0655
     57 H28        -0.3633   -2.6368    3.4752 H       1  <0>1       -0.0818
@<TRIPOS>BOND
     1     2     3    1
     2     1     2    1
     3     1    17    1
     4     1    18    1
     5     1    49    1
     6     2    19    1
     7     2    20    1
     8     3     8    1
     9     3     4    1
    10     3    57    1
    11     4    22    1
    12     4     5    1
    13     4    21    1
    14     5     6    1
    15     5    24    1
    16     5    23    1
    17     6    10    1
    18     6     7    1
    19     6     9    1
    20     7    26    1
    21     7     8    1
    22     7    25    1
    23     8    28    1
    24     8    27    1
    25     9    11    1
    26     9    12    1
    27    10    39    2
    28    10    16   am
    29    11    16    1
    30    11    33    1
    31    11    32    1
    32    12    14   ar
    33    12    13   ar
    34    13    29    1
    35    13    15   ar
    36    14    30    1
    37    14    35   ar
    38    15    36   ar
    39    15    31    1
    40    16    34    1
    41    35    37    1
    42    35    36   ar
    43    36    38    1
    44    40    45   ar
    45    40    47    1
    46    40    41   ar
    47    41    42   ar
    48    41    46    1
    49    42    43   ar
    50    42    53    1
    51    43    44   ar
    52    43    54    1
    53    44    55    1
    54    44    45   ar
    55    45    56    1
    56    46    48    1
    57    47    49    1
    58    48    50    1
    59    48    51    1
    60    48    49    1
    61    49    52    1
