@<TRIPOS>MOLECULE
cpd_05
 45 48 0 0 0
SMALL
GASTEIGER
Energy = 0

@<TRIPOS>ATOM
      1 C1          0.1300    0.0818   -0.0984 C.2     1  <0>1        0.3229
      2 C2          3.1434    0.6723   -2.0584 C.ar    1  <0>1       -0.0059
      3 C3          3.8727    1.6472   -2.7330 C.ar    1  <0>1       -0.0394
      4 C4          3.5543    2.9869   -2.5312 C.ar    1  <0>1        0.0300
      5 N1          2.5563    3.3730   -1.6999 N.ar    1  <0>1       -0.2361
      6 C5          1.8344    2.4386   -1.0376 C.ar    1  <0>1        0.1744
      7 C6          2.1037    1.0586   -1.2068 C.ar    1  <0>1        0.2161
      8 N2          0.7358    2.9267   -0.3218 N.pl3   1  <0>1       -0.2953
      9 N3          1.4060    0.0673   -0.5289 N.2     1  <0>1       -0.0379
     10 C7         -0.7976    1.0713   -0.7161 C.ar    1  <0>1        0.0869
     11 C8         -0.5119    2.4508   -0.7605 C.ar    1  <0>1        0.0475
     12 C9         -1.4412    3.2773   -1.4131 C.ar    1  <0>1       -0.0394
     13 C10        -2.5870    2.7479   -2.0272 C.ar    1  <0>1       -0.0570
     14 C11        -2.8472    1.3773   -2.0024 C.ar    1  <0>1       -0.0495
     15 C12        -1.9475    0.5594   -1.3283 C.ar    1  <0>1       -0.0421
     16 C13         0.5656   -1.9799    1.1041 C.3     1  <0>1        0.0659
     17 N4         -0.3108   -0.8619    0.7712 N.pl3   1  <0>1       -0.2237
     18 C14        -0.2350   -3.1565    1.6620 C.3     1  <0>1       -0.0537
     19 C15        -1.3211   -0.4520    1.7449 C.3     1  <0>1        0.0659
     20 C16        -2.1035   -1.6564    2.2610 C.3     1  <0>1       -0.0537
     21 N5         -1.1833   -2.7343    2.7469 N.4     1  <0>1        0.3826
     22 C17        -1.9719   -3.9089    3.2279 C.3     1  <0>1       -0.1029
     23 H1         -0.6452   -2.3710    3.5180 H       1  <0>1       -0.0819
     24 H2          0.7899    3.9546   -0.3436 H       1  <0>1        0.1537
     25 C18        -4.0217    0.7442   -2.7084 C.3     1  <0>1       -0.0397
     26 H3          3.3821   -0.3947   -2.2000 H       1  <0>1        0.0662
     27 H4          4.6923    1.3679   -3.4143 H       1  <0>1        0.0634
     28 H5          4.1124    3.7850   -3.0486 H       1  <0>1        0.0830
     29 H6         -1.2462    4.3596   -1.5043 H       1  <0>1        0.0636
     30 H7         -3.2729    3.4260   -2.5634 H       1  <0>1        0.0621
     31 H8         -2.1260   -0.5285   -1.3220 H       1  <0>1        0.0629
     32 H9          1.1299   -2.3369    0.2113 H       1  <0>1        0.0707
     33 H10         1.3253   -1.6665    1.8578 H       1  <0>1        0.0707
     34 H11         0.4688   -3.9372    2.0341 H       1  <0>1        0.0095
     35 H12        -0.8077   -3.6220    0.8256 H       1  <0>1        0.0095
     36 H13        -0.8360    0.0638    2.6061 H       1  <0>1        0.0707
     37 H14        -2.0483    0.2770    1.3221 H       1  <0>1        0.0707
     38 H15        -2.7457   -2.0468    1.4370 H       1  <0>1        0.0095
     39 H16        -2.7939   -1.3285    3.0729 H       1  <0>1        0.0095
     40 H17        -2.6631   -3.6228    4.0523 H       1  <0>1        0.0023
     41 H18        -2.5870   -4.3512    2.4128 H       1  <0>1        0.0023
     42 H19        -1.3060   -4.7109    3.6189 H       1  <0>1        0.0023
     43 H20        -4.6566    1.5023   -3.2174 H       1  <0>1        0.0278
     44 H21        -3.6820    0.0215   -3.4833 H       1  <0>1        0.0278
     45 H22        -4.6713    0.1951   -1.9911 H       1  <0>1        0.0278
@<TRIPOS>BOND
     1     1     9    2
     2     1    10    1
     3     1    17    1
     4     2     3   ar
     5     2     7   ar
     6     2    26    1
     7     3     4   ar
     8     3    27    1
     9     4     5   ar
    10     4    28    1
    11     5     6   ar
    12     6     7   ar
    13     6     8    1
    14     7     9    1
    15     8    11    1
    16     8    24    1
    17    10    15   ar
    18    10    11   ar
    19    11    12   ar
    20    12    13   ar
    21    12    29    1
    22    13    14   ar
    23    13    30    1
    24    14    15   ar
    25    14    25    1
    26    15    31    1
    27    16    17    1
    28    16    18    1
    29    16    32    1
    30    16    33    1
    31    17    19    1
    32    18    21    1
    33    18    34    1
    34    18    35    1
    35    19    20    1
    36    19    36    1
    37    19    37    1
    38    20    21    1
    39    20    38    1
    40    20    39    1
    41    21    22    1
    42    21    23    1
    43    22    40    1
    44    22    41    1
    45    22    42    1
    46    25    43    1
    47    25    44    1
    48    25    45    1
