@<TRIPOS>MOLECULE
cpd_41
 47 50 0 0 0
SMALL
GASTEIGER
Energy = 0

@<TRIPOS>ATOM
      1 N1          0.2007   -1.7365   -1.4750 N.ar    1  <0>1       -0.0824
      2 N2         -1.3608   -3.5211    3.2855 N.4     1  <0>1        0.3824
      3 C1          3.1901    1.1308   -2.3879 C.ar    1  <0>1       -0.0496
      4 C2          3.9691    2.2170   -2.7998 C.ar    1  <0>1       -0.0427
      5 C3          3.6311    3.5051   -2.3928 C.ar    1  <0>1        0.0410
      6 C4          2.5225    3.7160   -1.5761 C.ar    1  <0>1       -0.0427
      7 C5          1.7478    2.6286   -1.1592 C.ar    1  <0>1       -0.0496
      8 C6          2.0747    1.3250   -1.5598 C.ar    1  <0>1        0.0200
      9 C7          1.2792    0.1966   -1.1090 C.ar    1  <0>1        0.1675
     10 C8          0.7166   -0.1748    0.0899 C.ar    1  <0>1        0.0086
     11 C9          0.0546   -1.3935   -0.1903 C.ar    1  <0>1        0.0871
     12 C10        -0.7010   -2.3169    0.7147 C.3     1  <0>1        0.0013
     13 C11         0.2530   -3.2856    1.4235 C.3     1  <0>1       -0.0597
     14 C12        -0.5102   -4.2714    2.2897 C.3     1  <0>1       -0.0896
     15 C13        -2.3389   -2.5850    2.6132 C.3     1  <0>1       -0.0896
     16 C14        -1.5776   -1.5918    1.7421 C.3     1  <0>1       -0.0597
     17 C15        -2.0385   -4.4802    4.2493 C.3     1  <0>1       -0.0644
     18 O1          0.9781   -0.7442   -2.0462 O.2     1  <0>1       -0.3544
     19 Cl1         4.5860    4.8420   -2.9002 Cl      1  <0>1       -0.0835
     20 C16        -2.4652   -3.8253    5.5370 C.ar    1  <0>1       -0.0639
     21 C17        -3.8256   -3.6749    5.8471 C.ar    1  <0>1       -0.0590
     22 C18        -4.2165   -3.0802    7.0507 C.ar    1  <0>1       -0.0432
     23 C19        -3.2536   -2.6257    7.9479 C.ar    1  <0>1        0.0410
     24 C20        -1.8998   -2.7700    7.6562 C.ar    1  <0>1       -0.0432
     25 C21        -1.5050   -3.3708    6.4576 C.ar    1  <0>1       -0.0590
     26 H1         -0.7385   -2.9462    3.8316 H       1  <0>1       -0.0814
     27 Cl2        -3.7370   -1.8866    9.4213 Cl      1  <0>1       -0.0835
     28 H2          3.4658    0.1304   -2.7170 H       1  <0>1        0.0625
     29 H3          4.8315    2.0503   -3.4404 H       1  <0>1        0.0632
     30 H4          2.2555    4.7224   -1.2631 H       1  <0>1        0.0632
     31 H5          0.8819    2.8153   -0.5281 H       1  <0>1        0.0625
     32 H6          0.7910    0.3606    1.0242 H       1  <0>1        0.0674
     33 H7         -1.3758   -2.9160    0.0843 H       1  <0>1        0.0364
     34 H8          0.8460   -3.8419    0.6868 H       1  <0>1        0.0253
     35 H9          0.9696   -2.7280    2.0414 H       1  <0>1        0.0253
     36 H10         0.1885   -4.8964    2.8557 H       1  <0>1        0.0059
     37 H11        -1.1755   -4.9099    1.6980 H       1  <0>1        0.0059
     38 H12        -3.0332   -3.1946    2.0243 H       1  <0>1        0.0059
     39 H13        -2.8899   -2.0552    3.3960 H       1  <0>1        0.0059
     40 H14        -0.9637   -0.9455    2.3829 H       1  <0>1        0.0253
     41 H15        -2.2936   -0.9365    1.2311 H       1  <0>1        0.0253
     42 H16        -2.8796   -4.9396    3.7171 H       1  <0>1        0.0107
     43 H17        -1.3198   -5.2740    4.4868 H       1  <0>1        0.0107
     44 H18        -4.6019   -4.0285    5.1697 H       1  <0>1        0.0620
     45 H19        -5.2740   -2.9748    7.2859 H       1  <0>1        0.0632
     46 H20        -1.1501   -2.4269    8.3666 H       1  <0>1        0.0632
     47 H21        -0.4395   -3.4962    6.2725 H       1  <0>1        0.0620
@<TRIPOS>BOND
     1     1    11   ar
     2     1    18   ar
     3     2    14    1
     4     2    15    1
     5     2    17    1
     6     2    26    1
     7     3     4   ar
     8     3     8   ar
     9     3    28    1
    10     4     5   ar
    11     4    29    1
    12     5     6   ar
    13     5    19    1
    14     6     7   ar
    15     6    30    1
    16     7     8   ar
    17     7    31    1
    18     8     9    1
    19     9    10   ar
    20     9    18   ar
    21    10    11   ar
    22    10    32    1
    23    11    12    1
    24    12    13    1
    25    12    16    1
    26    12    33    1
    27    13    14    1
    28    13    34    1
    29    13    35    1
    30    14    36    1
    31    14    37    1
    32    15    16    1
    33    15    38    1
    34    15    39    1
    35    16    40    1
    36    16    41    1
    37    17    20    1
    38    17    42    1
    39    17    43    1
    40    20    21   ar
    41    20    25   ar
    42    21    22   ar
    43    21    44    1
    44    22    23   ar
    45    22    45    1
    46    23    24   ar
    47    23    27    1
    48    24    25   ar
    49    24    46    1
    50    25    47    1
