@<TRIPOS>MOLECULE
cpd_15
 50 52 0 0 0
SMALL
GASTEIGER
Energy = 0

@<TRIPOS>ATOM
      1 N1         -0.5741   -3.2133    2.4599 N.4     1  <0>1        0.3816
      2 C1         -0.3457   -0.9544    0.5193 C.3     1  <0>1        0.0968
      3 C2          0.8648   -1.5269    1.2564 C.3     1  <0>1       -0.0307
      4 C3          0.6487   -3.0030    1.6170 C.3     1  <0>1       -0.0872
      5 C4         -1.7737   -2.6562    1.7491 C.3     1  <0>1       -0.0872
      6 C5         -1.5968   -1.1764    1.3703 C.3     1  <0>1       -0.0307
      7 C6         -0.6968   -4.6783    2.7962 C.3     1  <0>1       -0.0607
      8 C7         -3.2578   -4.4179    7.0318 C.ar    1  <0>1        0.1206
      9 C8         -4.3057   -5.0119    7.7411 C.ar    1  <0>1       -0.0199
     10 C9         -2.6020   -3.3120    7.5882 C.ar    1  <0>1       -0.0199
     11 C10        -4.6973   -4.5130    8.9829 C.ar    1  <0>1       -0.0583
     12 C11        -2.9943   -2.8101    8.8307 C.ar    1  <0>1       -0.0583
     13 C12        -4.0421   -3.4102    9.5284 C.ar    1  <0>1       -0.0615
     14 H1          1.7760   -1.4243    0.6223 H       1  <0>1        0.0282
     15 H2          1.0572   -0.9427    2.1858 H       1  <0>1        0.0282
     16 H3          0.5718   -3.5927    0.6737 H       1  <0>1        0.0060
     17 H4          1.5561   -3.3774    2.1468 H       1  <0>1        0.0060
     18 H5         -1.9793   -3.2428    0.8226 H       1  <0>1        0.0060
     19 H6         -2.6841   -2.7259    2.3840 H       1  <0>1        0.0060
     20 H7         -2.5041   -0.8254    0.8292 H       1  <0>1        0.0282
     21 H8         -1.5302   -0.5656    2.3002 H       1  <0>1        0.0282
     22 H9          0.2394   -5.0087    3.3058 H       1  <0>1        0.0085
     23 H10        -0.7415   -5.2672    1.8504 H       1  <0>1        0.0085
     24 H11        -4.8286   -5.8852    7.3169 H       1  <0>1        0.0654
     25 H12        -1.7692   -2.8178    7.0680 H       1  <0>1        0.0654
     26 H13        -5.5262   -4.9887    9.5342 H       1  <0>1        0.0619
     27 H14        -2.4767   -1.9384    9.2663 H       1  <0>1        0.0619
     28 H15        -4.3522   -3.0136   10.5109 H       1  <0>1        0.0618
     29 O1         -0.1135    0.4410    0.3831 O.3     1  <0>1       -0.4890
     30 H16        -0.4361   -1.4514   -0.4712 H       1  <0>1        0.0731
     31 C13        -0.9219    1.2319   -0.3848 C.ar    1  <0>1        0.1209
     32 C14        -0.8159    2.6110   -0.1781 C.ar    1  <0>1       -0.0199
     33 C15        -1.8181    0.7589   -1.3505 C.ar    1  <0>1       -0.0199
     34 C16        -1.5976    3.5051   -0.9117 C.ar    1  <0>1       -0.0583
     35 C17        -2.6003    1.6513   -2.0854 C.ar    1  <0>1       -0.0583
     36 C18        -2.4922    3.0240   -1.8654 C.ar    1  <0>1       -0.0615
     37 H17        -0.1067    2.9997    0.5728 H       1  <0>1        0.0654
     38 H18        -1.9189   -0.3160   -1.5594 H       1  <0>1        0.0654
     39 H19        -1.5063    4.5913   -0.7391 H       1  <0>1        0.0619
     40 H20        -3.3032    1.2743   -2.8478 H       1  <0>1        0.0619
     41 H21        -3.1104    3.7283   -2.4490 H       1  <0>1        0.0618
     42 C19        -1.9456   -4.3693    5.0138 C.3     1  <0>1        0.1136
     43 C20        -1.8758   -5.1269    3.6803 C.3     1  <0>1        0.0746
     44 O2         -2.9455   -4.9703    5.8212 O.3     1  <0>1       -0.4895
     45 H22        -2.1930   -3.3013    4.8357 H       1  <0>1        0.0722
     46 H23        -0.9616   -4.4278    5.5301 H       1  <0>1        0.0722
     47 H24        -1.7692   -6.2194    3.8819 H       1  <0>1        0.0608
     48 O3         -3.0693   -4.8959    2.9402 O.3     1  <0>1       -0.3903
     49 H25        -3.7943   -5.3369    3.3843 H       1  <0>1        0.2098
     50 H26        -0.4634   -2.7053    3.3235 H       1  <0>1       -0.0817
@<TRIPOS>BOND
     1     1     7    1
     2     1     5    1
     3     1     4    1
     4     1    50    1
     5     2    30    1
     6     2     6    1
     7     2     3    1
     8     2    29    1
     9     3     4    1
    10     3    14    1
    11     3    15    1
    12     4    16    1
    13     4    17    1
    14     5    18    1
    15     5    19    1
    16     5     6    1
    17     6    20    1
    18     6    21    1
    19     7    23    1
    20     7    43    1
    21     7    22    1
    22     8    44    1
    23     8     9   ar
    24     8    10   ar
    25     9    24    1
    26     9    11   ar
    27    10    25    1
    28    10    12   ar
    29    11    26    1
    30    11    13   ar
    31    12    13   ar
    32    12    27    1
    33    13    28    1
    34    29    31    1
    35    31    33   ar
    36    31    32   ar
    37    32    34   ar
    38    32    37    1
    39    33    38    1
    40    33    35   ar
    41    34    36   ar
    42    34    39    1
    43    35    40    1
    44    35    36   ar
    45    36    41    1
    46    42    43    1
    47    42    44    1
    48    42    46    1
    49    42    45    1
    50    43    47    1
    51    43    48    1
    52    48    49    1
