@<TRIPOS>MOLECULE
cpd_20
 52 56 0 0 0
SMALL
GASTEIGER
Energy = 0

@<TRIPOS>ATOM
      1 C1         -0.3027    2.0804   -1.1298 C.ar    1  <0>1        0.0467
      2 C2         -1.1159    1.0367   -0.7495 C.ar    1  <0>1        0.0031
      3 C3         -2.4646    1.0272   -1.1024 C.ar    1  <0>1       -0.0523
      4 C4         -2.9803    2.1019   -1.8363 C.ar    1  <0>1       -0.0611
      5 C5         -2.1506    3.1640   -2.2097 C.ar    1  <0>1       -0.0598
      6 C6         -0.7977    3.1567   -1.8609 C.ar    1  <0>1       -0.0378
      7 C7         -0.3522    0.1044   -0.0033 C.ar    1  <0>1       -0.0194
      8 C8          0.9345    0.6006    0.0399 C.ar    1  <0>1        0.0062
      9 N1          0.9487    1.7925   -0.6440 N.ar    1  <0>1       -0.3604
     10 C9         -0.8851   -1.1583    0.6204 C.3     1  <0>1       -0.0172
     11 C10         0.2194   -2.1269    1.0744 C.3     1  <0>1       -0.0612
     12 C11        -0.3597   -3.3464    1.8116 C.3     1  <0>1       -0.0901
     13 N2         -1.1904   -2.9584    3.0001 N.4     1  <0>1        0.3799
     14 C12        -2.2827   -2.0291    2.5614 C.3     1  <0>1       -0.0901
     15 C13        -1.7428   -0.7889    1.8402 C.3     1  <0>1       -0.0612
     16 C14        -1.7380   -4.1897    3.6723 C.3     1  <0>1       -0.0871
     17 H1         -2.5587    3.9961   -2.7720 H       1  <0>1        0.0618
     18 C15        -2.6554   -3.9292    4.8797 C.3     1  <0>1       -0.0479
     19 C16        -1.9261   -3.3917    6.1362 C.3     1  <0>1       -0.0260
     20 C17        -3.3640   -5.2044    5.3949 C.3     1  <0>1       -0.0260
     21 C18        -3.6649   -4.8247    6.8322 C.ar    1  <0>1       -0.0440
     22 C19        -4.6405   -5.3587    7.6739 C.ar    1  <0>1       -0.0583
     23 C20        -2.8660   -3.8263    7.2447 C.ar    1  <0>1       -0.0440
     24 C21        -4.7763   -4.8564    8.9688 C.ar    1  <0>1       -0.0615
     25 C22        -2.9836   -3.3003    8.5303 C.ar    1  <0>1       -0.0583
     26 C23        -3.9419   -3.8226    9.4005 C.ar    1  <0>1       -0.0615
     27 H2         -3.1228    0.1929   -0.8142 H       1  <0>1        0.0624
     28 H3         -4.0275    2.1110   -2.1164 H       1  <0>1        0.0618
     29 H4         -0.1381    3.9894   -2.1561 H       1  <0>1        0.0638
     30 H5          1.8368    0.1949    0.5108 H       1  <0>1        0.0810
     31 H6          1.8001    2.3957   -0.7656 H       1  <0>1        0.1653
     32 H7         -1.5238   -1.6784   -0.1319 H       1  <0>1        0.0348
     33 H8          0.8101   -2.4671    0.1911 H       1  <0>1        0.0253
     34 H9          0.9294   -1.6036    1.7561 H       1  <0>1        0.0253
     35 H10         0.4809   -4.0075    2.1283 H       1  <0>1        0.0059
     36 H11        -0.9708   -3.9392    1.0917 H       1  <0>1        0.0059
     37 H12        -2.9909   -2.5600    1.8835 H       1  <0>1        0.0059
     38 H13        -2.8805   -1.6738    3.4307 H       1  <0>1        0.0059
     39 H14        -1.1360   -0.1845    2.5545 H       1  <0>1        0.0253
     40 H15        -2.5974   -0.1447    1.5325 H       1  <0>1        0.0253
     41 H16        -0.9000   -4.8511    3.9963 H       1  <0>1        0.0062
     42 H17        -2.3210   -4.7803    2.9269 H       1  <0>1        0.0062
     43 H18        -3.4603   -3.2081    4.6031 H       1  <0>1        0.0289
     44 H19        -1.7988   -2.2878    6.1016 H       1  <0>1        0.0315
     45 H20        -0.9304   -3.8705    6.2686 H       1  <0>1        0.0315
     46 H21        -2.6880   -6.0886    5.3652 H       1  <0>1        0.0315
     47 H22        -4.2845   -5.4314    4.8136 H       1  <0>1        0.0315
     48 H23        -5.2958   -6.1718    7.3226 H       1  <0>1        0.0620
     49 H24        -5.5381   -5.2729    9.6493 H       1  <0>1        0.0618
     50 H25        -2.3265   -2.4783    8.8592 H       1  <0>1        0.0620
     51 H26        -4.0447   -3.4192   10.4219 H       1  <0>1        0.0618
     52 H27        -0.6046   -2.4718    3.6604 H       1  <0>1       -0.0818
@<TRIPOS>BOND
     1     8     9   ar
     2    12    13    1
     3     1     2   ar
     4     1     6   ar
     5     1     9   ar
     6     2     3   ar
     7     2     7   ar
     8     3    27    1
     9     3     4   ar
    10     4    28    1
    11     4     5   ar
    12     5    17    1
    13     5     6   ar
    14     6    29    1
    15     7    10    1
    16     7     8   ar
    17     8    30    1
    18     9    31    1
    19    10    32    1
    20    10    11    1
    21    10    15    1
    22    11    12    1
    23    11    33    1
    24    11    34    1
    25    12    36    1
    26    12    35    1
    27    13    16    1
    28    13    14    1
    29    13    52    1
    30    14    37    1
    31    14    38    1
    32    14    15    1
    33    15    40    1
    34    15    39    1
    35    16    42    1
    36    16    41    1
    37    16    18    1
    38    18    20    1
    39    18    43    1
    40    18    19    1
    41    19    23    1
    42    19    45    1
    43    19    44    1
    44    20    47    1
    45    20    46    1
    46    20    21    1
    47    21    22   ar
    48    21    23   ar
    49    22    48    1
    50    22    24   ar
    51    23    25   ar
    52    24    49    1
    53    24    26   ar
    54    25    26   ar
    55    25    50    1
    56    26    51    1
