@<TRIPOS>MOLECULE
cpd_32
 48 51 0 0 0
SMALL
GASTEIGER
Energy = 0

@<TRIPOS>ATOM
      1 N1          0.0238   -1.7448   -1.7879 N.ar    1  <0>1       -0.1780
      2 N2         -1.5575   -2.9755    3.2496 N.4     1  <0>1        0.3799
      3 C1          2.9979    1.2411   -2.8733 C.ar    1  <0>1       -0.0455
      4 C2          3.8445    2.4419   -2.8231 C.ar    1  <0>1       -0.0541
      5 H1          4.5117    2.7419   -3.6312 H       1  <0>1        0.0623
      6 C3          3.7025    3.1164   -1.6799 C.ar    1  <0>1       -0.0237
      7 S1          2.5421    2.3658   -0.5614 S.2     1  <0>1       -0.0952
      8 C4          2.2669    1.0799   -1.7660 C.ar    1  <0>1        0.0370
      9 C5          1.3179   -0.0198   -1.4971 C.ar    1  <0>1        0.0725
     10 C6          0.7761   -0.3104   -0.3089 C.ar    1  <0>1       -0.0126
     11 C7         -0.0808   -1.4776   -0.5533 C.ar    1  <0>1        0.0663
     12 H2          0.9421    0.2036    0.6370 H       1  <0>1        0.0657
     13 C8         -0.9166   -2.2440    0.4405 C.3     1  <0>1       -0.0003
     14 C9          0.0116   -3.1519    1.2831 C.3     1  <0>1       -0.0597
     15 C10        -0.8116   -3.9093    2.3580 C.3     1  <0>1       -0.0900
     16 C11        -2.4763   -2.1170    2.4509 C.3     1  <0>1       -0.0900
     17 C12        -1.7073   -1.2980    1.3788 C.3     1  <0>1       -0.0597
     18 C13        -2.2373   -3.7188    4.3518 C.3     1  <0>1       -0.0866
     19 C14        -2.9137   -2.8159    5.4217 C.3     1  <0>1       -0.0426
     20 C15        -3.1959   -3.6273    6.6956 C.ar    1  <0>1       -0.0491
     21 C16        -4.4079   -4.3091    6.8535 C.ar    1  <0>1       -0.0586
     22 C17        -4.6655   -5.0293    8.0238 C.ar    1  <0>1       -0.0615
     23 C18        -3.7084   -5.0790    9.0412 C.ar    1  <0>1       -0.0617
     24 C19        -2.4911   -4.4113    8.8830 C.ar    1  <0>1       -0.0615
     25 C20        -2.2356   -3.6921    7.7121 C.ar    1  <0>1       -0.0586
     26 N3          0.8678   -0.8722   -2.3769 N.ar    1  <0>1       -0.2762
     27 H3          2.9921    0.5727   -3.7328 H       1  <0>1        0.0629
     28 H4          4.2385    4.0351   -1.4426 H       1  <0>1        0.0693
     29 H5          1.1084   -0.8847   -3.3775 H       1  <0>1        0.1889
     30 H6         -1.6359   -2.8692   -0.1162 H       1  <0>1        0.0363
     31 H7          0.5252   -3.8715    0.6231 H       1  <0>1        0.0253
     32 H8          0.7779   -2.5342    1.7800 H       1  <0>1        0.0253
     33 H9         -1.5160   -4.5907    1.8512 H       1  <0>1        0.0059
     34 H10        -0.1068   -4.5323    2.9366 H       1  <0>1        0.0059
     35 H11        -3.2398   -2.7396    1.9550 H       1  <0>1        0.0059
     36 H12        -3.0019   -1.3888    3.0898 H       1  <0>1        0.0059
     37 H13        -2.4110   -0.6934    0.7821 H       1  <0>1        0.0253
     38 H14        -1.0169   -0.6115    1.8938 H       1  <0>1        0.0253
     39 H15        -2.9961   -4.4071    3.9428 H       1  <0>1        0.0062
     40 H16        -1.4886   -4.3333    4.8826 H       1  <0>1        0.0062
     41 H17        -2.2533   -1.9715    5.6744 H       1  <0>1        0.0295
     42 H18        -3.8604   -2.3989    5.0445 H       1  <0>1        0.0295
     43 H19        -5.1547   -4.2829    6.0665 H       1  <0>1        0.0620
     44 H20        -5.6100   -5.5511    8.1436 H       1  <0>1        0.0618
     45 H21        -3.9097   -5.6344    9.9522 H       1  <0>1        0.0618
     46 H22        -1.7438   -4.4512    9.6697 H       1  <0>1        0.0618
     47 H23        -1.2835   -3.1840    7.5966 H       1  <0>1        0.0620
     48 H24        -0.8829   -2.3635    3.6813 H       1  <0>1       -0.0818
@<TRIPOS>BOND
     1     1    26   ar
     2     1    11   ar
     3     2    16    1
     4     2    15    1
     5     2    18    1
     6     2    48    1
     7     3    27    1
     8     3     4   ar
     9     3     8   ar
    10     4     6   ar
    11     4     5    1
    12     6     7   ar
    13     6    28    1
    14     7     8   ar
    15     8     9    1
    16     9    26   ar
    17     9    10   ar
    18    10    11   ar
    19    10    12    1
    20    11    13    1
    21    26    29    1
    22    13    30    1
    23    13    17    1
    24    13    14    1
    25    14    31    1
    26    14    15    1
    27    14    32    1
    28    15    33    1
    29    15    34    1
    30    16    35    1
    31    16    17    1
    32    16    36    1
    33    17    37    1
    34    17    38    1
    35    18    39    1
    36    18    40    1
    37    18    19    1
    38    19    42    1
    39    19    20    1
    40    19    41    1
    41    20    21   ar
    42    20    25   ar
    43    21    43    1
    44    21    22   ar
    45    22    44    1
    46    22    23   ar
    47    23    45    1
    48    23    24   ar
    49    24    25   ar
    50    24    46    1
    51    25    47    1
