@<TRIPOS>MOLECULE
cpd_25
 57 60 0 0 0
SMALL
GASTEIGER
Energy = 0

@<TRIPOS>ATOM
      1 N1         -0.2320   -1.6515   -1.7509 N.ar    1  <0>1       -0.1784
      2 N2         -1.4848   -2.8837    3.3830 N.4     1  <0>1        0.3799
      3 C1          3.0885    0.8213   -2.8993 C.3     1  <0>1       -0.0448
      4 C2          3.8886    2.0260   -3.4616 C.3     1  <0>1       -0.0525
      5 H1          3.7225    0.2403   -2.2099 H       1  <0>1        0.0272
      6 H2          1.3414    2.6583   -0.4849 H       1  <0>1        0.0272
      7 C3          2.2390    2.2774   -1.0007 C.3     1  <0>1       -0.0448
      8 C4          1.8217    1.3129   -2.1459 C.3     1  <0>1        0.0008
      9 C5          0.9846    0.1478   -1.6591 C.ar    1  <0>1        0.0394
     10 C6          0.6255   -0.1439   -0.4026 C.ar    1  <0>1       -0.0175
     11 C7         -0.2112   -1.3471   -0.5205 C.ar    1  <0>1        0.0660
     12 H3          0.8777    0.3811    0.5172 H       1  <0>1        0.0654
     13 C8         -0.9426   -2.0976    0.5645 C.3     1  <0>1       -0.0003
     14 C9         -0.0069   -3.0636    1.3280 C.3     1  <0>1       -0.0597
     15 C10        -0.8124   -3.8108    2.4261 C.3     1  <0>1       -0.0900
     16 C11        -2.3642   -1.9206    2.6623 C.3     1  <0>1       -0.0900
     17 C12        -1.5930   -1.1242    1.5768 C.3     1  <0>1       -0.0597
     18 C13        -2.2018   -3.6508    4.4464 C.3     1  <0>1       -0.0866
     19 C14        -2.8499   -2.7806    5.5593 C.3     1  <0>1       -0.0426
     20 C15        -3.2971   -3.6632    6.7347 C.ar    1  <0>1       -0.0491
     21 C16        -4.5911   -4.1954    6.7745 C.ar    1  <0>1       -0.0586
     22 C17        -5.0039   -4.9698    7.8630 C.ar    1  <0>1       -0.0615
     23 C18        -4.1192   -5.2284    8.9134 C.ar    1  <0>1       -0.0617
     24 C19        -2.8193   -4.7169    8.8691 C.ar    1  <0>1       -0.0615
     25 C20        -2.4097   -3.9412    7.7809 C.ar    1  <0>1       -0.0586
     26 N3          0.4781   -0.7498   -2.4596 N.ar    1  <0>1       -0.2811
     27 H4          2.8086    0.1662   -3.7401 H       1  <0>1        0.0272
     28 C21         3.0426    3.4828   -1.5548 C.3     1  <0>1       -0.0525
     29 H5          2.8607    1.7362   -0.2683 H       1  <0>1        0.0272
     30 H6          4.8426    3.8538   -2.7408 H       1  <0>1        0.0265
     31 H7          0.5822   -0.7664   -3.4845 H       1  <0>1        0.1885
     32 H8         -1.7451   -2.6766    0.0774 H       1  <0>1        0.0363
     33 H9          0.4334   -3.7879    0.6219 H       1  <0>1        0.0253
     34 H10         0.8143   -2.4931    1.7920 H       1  <0>1        0.0253
     35 H11        -1.5673   -4.4451    1.9311 H       1  <0>1        0.0059
     36 H12        -0.1135   -4.4827    2.9549 H       1  <0>1        0.0059
     37 H13        -3.2028   -2.4586    2.1894 H       1  <0>1        0.0059
     38 H14        -2.7902   -1.1698    3.3479 H       1  <0>1        0.0059
     39 H15        -2.2799   -0.4438    1.0455 H       1  <0>1        0.0253
     40 H16        -0.8179   -0.5151    2.0691 H       1  <0>1        0.0253
     41 H17        -2.9916   -4.2776    3.9991 H       1  <0>1        0.0062
     42 H18        -1.4882   -4.3289    4.9470 H       1  <0>1        0.0062
     43 H19        -2.1255   -2.0330    5.9186 H       1  <0>1        0.0295
     44 H20        -3.7307   -2.2406    5.1798 H       1  <0>1        0.0295
     45 H21        -5.2834   -4.0097    5.9596 H       1  <0>1        0.0620
     46 H22        -6.0124   -5.3710    7.8931 H       1  <0>1        0.0618
     47 H23        -4.4404   -5.8253    9.7617 H       1  <0>1        0.0618
     48 H24        -2.1277   -4.9223    9.6804 H       1  <0>1        0.0618
     49 H25        -1.3959   -3.5548    7.7526 H       1  <0>1        0.0620
     50 H26         4.9764    2.4673   -1.6232 H       1  <0>1        0.0265
     51 H27         1.1861    1.8704   -2.8549 H       1  <0>1        0.0364
     52 H28         4.7939    1.6626   -3.9770 H       1  <0>1        0.0265
     53 C22         4.2993    2.9905   -2.3194 C.3     1  <0>1       -0.0530
     54 H29         3.2704    2.5665   -4.1985 H       1  <0>1        0.0265
     55 H30         3.3465    4.1414   -0.7230 H       1  <0>1        0.0265
     56 H31         2.4022    4.0676   -2.2356 H       1  <0>1        0.0265
     57 H32        -0.7662   -2.3441    3.8396 H       1  <0>1       -0.0818
@<TRIPOS>BOND
     1     1    26   ar
     2     1    11   ar
     3     2    16    1
     4     2    15    1
     5     2    18    1
     6     2    57    1
     7     3    27    1
     8     3     4    1
     9     3     8    1
    10     3     5    1
    11     6     7    1
    12     7    28    1
    13     7    29    1
    14    30    53    1
    15    50    53    1
    16     7     8    1
    17     8     9    1
    18     9    26   ar
    19     9    10   ar
    20    10    11   ar
    21    10    12    1
    22    11    13    1
    23    26    31    1
    24    13    32    1
    25    13    17    1
    26    13    14    1
    27    14    33    1
    28    14    15    1
    29    14    34    1
    30    15    35    1
    31    15    36    1
    32    16    37    1
    33    16    17    1
    34    16    38    1
    35    17    39    1
    36    17    40    1
    37    18    41    1
    38    18    42    1
    39    18    19    1
    40    19    44    1
    41    19    20    1
    42    19    43    1
    43    20    21   ar
    44    20    25   ar
    45    21    45    1
    46    21    22   ar
    47    22    46    1
    48    22    23   ar
    49    23    47    1
    50    23    24   ar
    51    24    25   ar
    52    24    48    1
    53    25    49    1
    54     8    51    1
    55     4    52    1
    56     4    53    1
    57     4    54    1
    58    28    55    1
    59    28    56    1
    60    28    53    1
