@<TRIPOS>MOLECULE
cpd_26
 50 53 0 0 0
SMALL
GASTEIGER
Energy = 0

@<TRIPOS>ATOM
      1 N1         -0.1340   -1.4962   -1.6934 N.ar    1  <0>1       -0.1780
      2 N2         -1.6372   -3.0311    3.2565 N.4     1  <0>1        0.3799
      3 C1          2.4347    2.3397   -0.9452 C.ar    1  <0>1       -0.0342
      4 C2          3.4154    3.2808   -1.2678 C.ar    1  <0>1       -0.0583
      5 C3          4.2091    3.0857   -2.4009 C.ar    1  <0>1       -0.0436
      6 C4          3.9916    1.9550   -3.1927 C.ar    1  <0>1        0.0283
      7 N3          3.0238    1.0716   -2.8687 N.ar    1  <0>1       -0.2535
      8 C5          2.2752    1.2082   -1.7527 C.ar    1  <0>1        0.0886
      9 C6          1.2749    0.1267   -1.4103 C.ar    1  <0>1        0.0841
     10 C7          0.8447   -0.2213   -0.1896 C.ar    1  <0>1       -0.0116
     11 C8         -0.0995   -1.3251   -0.4381 C.ar    1  <0>1        0.0664
     12 H1          1.1318    0.2032    0.7717 H       1  <0>1        0.0658
     13 C9         -0.9024   -2.1539    0.5349 C.3     1  <0>1       -0.0003
     14 C10         0.0152   -3.0809    1.3704 C.3     1  <0>1       -0.0597
     15 C11        -0.8373   -3.9171    2.3645 C.3     1  <0>1       -0.0900
     16 C12        -2.5632   -2.1847    2.4535 C.3     1  <0>1       -0.0900
     17 C13        -1.7791   -1.2799    1.4645 C.3     1  <0>1       -0.0597
     18 C14        -2.3206   -3.7857    4.3472 C.3     1  <0>1       -0.0866
     19 C15        -2.9042   -2.8668    5.4595 C.3     1  <0>1       -0.0426
     20 C16        -3.1400   -3.6676    6.7467 C.ar    1  <0>1       -0.0491
     21 C17        -4.3337   -4.3744    6.9266 C.ar    1  <0>1       -0.0586
     22 C18        -4.5569   -5.0886    8.1071 C.ar    1  <0>1       -0.0615
     23 C19        -3.5839   -5.1045    9.1104 C.ar    1  <0>1       -0.0617
     24 C20        -2.3860   -4.4077    8.9309 C.ar    1  <0>1       -0.0615
     25 C21        -2.1632   -3.6958    7.7492 C.ar    1  <0>1       -0.0586
     26 N4          0.6965   -0.6264   -2.3010 N.ar    1  <0>1       -0.2752
     27 H2          1.7994    2.4934   -0.0801 H       1  <0>1        0.0639
     28 H3          3.5598    4.1575   -0.6441 H       1  <0>1        0.0619
     29 H4          4.9821    3.8020   -2.6624 H       1  <0>1        0.0633
     30 H5          4.6013    1.7819   -4.0734 H       1  <0>1        0.0830
     31 H6          0.8423   -0.5641   -3.3187 H       1  <0>1        0.1890
     32 H7         -1.5781   -2.7912   -0.0598 H       1  <0>1        0.0363
     33 H8          0.5754   -3.7532    0.6991 H       1  <0>1        0.0253
     34 H9          0.7448   -2.4732    1.9306 H       1  <0>1        0.0253
     35 H10        -1.5060   -4.5897    1.8009 H       1  <0>1        0.0059
     36 H11        -0.1464   -4.5547    2.9436 H       1  <0>1        0.0059
     37 H12        -3.2651   -2.8238    1.8908 H       1  <0>1        0.0059
     38 H13        -3.1662   -1.5179    3.0894 H       1  <0>1        0.0059
     39 H14        -2.4846   -0.6872    0.8581 H       1  <0>1        0.0253
     40 H15        -1.1446   -0.5809    2.0330 H       1  <0>1        0.0253
     41 H16        -3.1251   -4.4196    3.9377 H       1  <0>1        0.0062
     42 H17        -1.5938   -4.4571    4.8366 H       1  <0>1        0.0062
     43 H18        -2.2061   -2.0451    5.6832 H       1  <0>1        0.0295
     44 H19        -3.8571   -2.4144    5.1445 H       1  <0>1        0.0295
     45 H20        -5.0908   -4.3709    6.1489 H       1  <0>1        0.0620
     46 H21        -5.4870   -5.6310    8.2444 H       1  <0>1        0.0618
     47 H22        -3.7578   -5.6577   10.0280 H       1  <0>1        0.0618
     48 H23        -1.6283   -4.4189    9.7085 H       1  <0>1        0.0618
     49 H24        -1.2252   -3.1656    7.6159 H       1  <0>1        0.0620
     50 H25        -0.9884   -2.4053    3.7076 H       1  <0>1       -0.0818
@<TRIPOS>BOND
     1     1    26   ar
     2     1    11   ar
     3     2    16    1
     4     2    15    1
     5     2    18    1
     6     2    50    1
     7     3    27    1
     8     3     4   ar
     9     3     8   ar
    10     4    28    1
    11     4     5   ar
    12     5    29    1
    13     5     6   ar
    14     6     7   ar
    15     6    30    1
    16     7     8   ar
    17     8     9    1
    18     9    26   ar
    19     9    10   ar
    20    10    11   ar
    21    10    12    1
    22    11    13    1
    23    26    31    1
    24    13    32    1
    25    13    17    1
    26    13    14    1
    27    14    33    1
    28    14    15    1
    29    14    34    1
    30    15    35    1
    31    15    36    1
    32    16    37    1
    33    16    17    1
    34    16    38    1
    35    17    39    1
    36    17    40    1
    37    18    41    1
    38    18    42    1
    39    18    19    1
    40    19    44    1
    41    19    20    1
    42    19    43    1
    43    20    21   ar
    44    20    25   ar
    45    21    45    1
    46    21    22   ar
    47    22    46    1
    48    22    23   ar
    49    23    47    1
    50    23    24   ar
    51    24    25   ar
    52    24    48    1
    53    25    49    1
