@<TRIPOS>MOLECULE
1f
 63 66 0 0 0
SMALL
GASTEIGER

@<TRIPOS>ATOM
      1 C           4.5876   -1.4116   -6.5357 C.3     1  LIG111     -0.0904
      2 H           4.5592   -1.5983   -7.6470 H       1  LIG111      0.0059
      3 H           5.6647   -1.3283   -6.2120 H       1  LIG111      0.0059
      4 C           3.9044   -2.5489   -5.7942 C.3     1  LIG111     -0.0605
      5 H           4.4766   -3.4919   -6.0125 H       1  LIG111      0.0253
      6 H           2.8587   -2.7014   -6.1719 H       1  LIG111      0.0253
      7 C           3.8913   -2.3037   -4.2888 C.3     1  LIG111     -0.0064
      8 H           4.9571   -2.2425   -3.9192 H       1  LIG111      0.0355
      9 C           3.2238   -0.9527   -4.0005 C.3     1  LIG111      0.0485
     10 H           2.1285   -1.0099   -4.2614 H       1  LIG111      0.0401
     11 C           3.9066    0.1736   -4.7848 C.3     1  LIG111     -0.0773
     12 H           4.9735    0.2850   -4.4314 H       1  LIG111      0.0067
     13 H           3.3629    1.1463   -4.6128 H       1  LIG111      0.0067
     14 N           3.9262   -0.0923   -6.2596 N.4     1  LIG111      0.3784
     15 H           2.9506   -0.1566   -6.5814 H       1  LIG111     -0.0822
     16 C           4.5989    1.0089   -6.9898 C.3     1  LIG111     -0.1032
     17 H           4.0469    1.9692   -6.8032 H       1  LIG111      0.0023
     18 H           4.6020    0.7858   -8.0904 H       1  LIG111      0.0023
     19 H           5.6575    1.1052   -6.6265 H       1  LIG111      0.0023
     20 C           3.3123   -0.5998   -2.5312 C.2     1  LIG111      0.3090
     21 O           2.2515   -1.0600   -1.8120 O.3     1  LIG111     -0.4644
     22 C           2.2302   -0.7811   -0.3965 C.3     1  LIG111      0.0933
     23 H           3.3229   -0.7238   -0.1385 H       1  LIG111      0.0698
     24 H           1.7363   -1.6264    0.1490 H       1  LIG111      0.0698
     25 C           1.5266    0.5343   -0.1320 C.3     1  LIG111     -0.0077
     26 H           1.5246    0.7336    0.9731 H       1  LIG111      0.0307
     27 H           0.4590    0.4736   -0.4659 H       1  LIG111      0.0307
     28 C           2.2371    1.6865   -0.8363 C.3     1  LIG111      0.0123
     29 H           3.3278    1.3934   -0.9245 H       1  LIG111      0.0398
     30 C           2.1552    2.9153    0.0216 C.ar    1  LIG111     -0.0399
     31 C           1.3799    2.8930    1.1873 C.ar    1  LIG111     -0.0580
     32 H           0.8471    1.9747    1.4770 H       1  LIG111      0.0620
     33 C           1.2838    4.0286    1.9898 C.ar    1  LIG111     -0.0615
     34 H           0.6772    4.0004    2.9074 H       1  LIG111      0.0618
     35 C           1.9588    5.1965    1.6351 C.ar    1  LIG111     -0.0617
     36 H           1.8860    6.0908    2.2716 H       1  LIG111      0.0618
     37 C           2.7332    5.2242    0.4750 C.ar    1  LIG111     -0.0615
     38 H           3.2749    6.1404    0.1970 H       1  LIG111      0.0618
     39 C           2.8318    4.0893   -0.3277 C.ar    1  LIG111     -0.0580
     40 H           3.4601    4.1050   -1.2316 H       1  LIG111      0.0620
     41 C           1.7317    1.9426   -2.2242 C.ar    1  LIG111     -0.0399
     42 C           1.8244    3.1966   -2.8384 C.ar    1  LIG111     -0.0580
     43 H           2.2803    4.0429   -2.3045 H       1  LIG111      0.0620
     44 C           1.3496    3.3856   -4.1359 C.ar    1  LIG111     -0.0615
     45 H           1.4333    4.3747   -4.6100 H       1  LIG111      0.0618
     46 C           0.7781    2.3243   -4.8362 C.ar    1  LIG111     -0.0617
     47 H           0.4083    2.4733   -5.8615 H       1  LIG111      0.0618
     48 C           0.6836    1.0702   -4.2327 C.ar    1  LIG111     -0.0615
     49 H           0.2394    0.2261   -4.7818 H       1  LIG111      0.0618
     50 C           1.1562    0.8801   -2.9357 C.ar    1  LIG111     -0.0580
     51 H           1.0848   -0.1150   -2.4703 H       1  LIG111      0.0620
     52 O           4.2223    0.0154   -1.9841 O.2     1  LIG111     -0.2506
     53 C           3.1975   -3.4302   -3.5931 C.ar    1  LIG111     -0.0435
     54 C           3.8597   -4.2115   -2.6385 C.ar    1  LIG111     -0.0569
     55 H           4.9147   -4.0164   -2.3944 H       1  LIG111      0.0621
     56 C           3.1970   -5.2501   -1.9902 C.ar    1  LIG111     -0.0431
     57 H           3.7281   -5.8633   -1.2447 H       1  LIG111      0.0632
     58 C           1.8557   -5.5121   -2.2931 C.ar    1  LIG111      0.0410
     59 C           1.1839   -4.7355   -3.2438 C.ar    1  LIG111     -0.0431
     60 H           0.1283   -4.9409   -3.4842 H       1  LIG111      0.0632
     61 C           1.8559   -3.6999   -3.8894 C.ar    1  LIG111     -0.0569
     62 H           1.3206   -3.0958   -4.6387 H       1  LIG111      0.0621
     63 CL          1.0449   -6.7729   -1.5071 Cl      1  LIG111     -0.0835
@<TRIPOS>BOND
     1    18    16    1
     2     2     1    1
     3    16    17    1
     4    16    19    1
     5    16    14    1
     6    15    14    1
     7     1    14    1
     8     1     3    1
     9     1     4    1
    10    14    11    1
    11     6     4    1
    12     5     4    1
    13    47    46    1
    14     4     7    1
    15    46    48   ar
    16    46    44   ar
    17    11    13    1
    18    11    12    1
    19    11     9    1
    20    49    48    1
    21    62    61    1
    22    45    44    1
    23     7     9    1
    24     7     8    1
    25     7    53    1
    26    10     9    1
    27    48    50   ar
    28    44    42   ar
    29     9    20    1
    30    61    53   ar
    31    61    59   ar
    32    53    54   ar
    33    60    59    1
    34    59    58   ar
    35    50    51    1
    36    50    41   ar
    37    42    43    1
    38    42    41   ar
    39    54    55    1
    40    54    56   ar
    41    20    52    2
    42    20    21    1
    43    58    56   ar
    44    58    63    1
    45    41    28    1
    46    56    57    1
    47    21    22    1
    48    40    39    1
    49    29    28    1
    50    28    25    1
    51    28    30    1
    52    27    25    1
    53    22    23    1
    54    22    25    1
    55    22    24    1
    56    39    30   ar
    57    39    37   ar
    58    25    26    1
    59    30    31   ar
    60    38    37    1
    61    37    35   ar
    62    31    32    1
    63    31    33   ar
    64    35    33   ar
    65    35    36    1
    66    33    34    1
