@<TRIPOS>MOLECULE
1h
 59 61 0 0 0
SMALL
GASTEIGER

@<TRIPOS>ATOM
      1 C           4.3211   -1.5285   -6.7108 C.3     1  LIG111     -0.0904
      2 H           4.2594   -1.8713   -7.7825 H       1  LIG111      0.0059
      3 H           5.4070   -1.3832   -6.4422 H       1  LIG111      0.0059
      4 C           3.6902   -2.5507   -5.7787 C.3     1  LIG111     -0.0605
      5 H           4.2745   -3.5065   -5.8749 H       1  LIG111      0.0253
      6 H           2.6349   -2.7749   -6.0884 H       1  LIG111      0.0253
      7 C           3.7249   -2.0834   -4.3271 C.3     1  LIG111     -0.0064
      8 H           4.8029   -1.9622   -4.0108 H       1  LIG111      0.0355
      9 C           3.0533   -0.7111   -4.2127 C.3     1  LIG111      0.0485
     10 H           1.9469   -0.8148   -4.4029 H       1  LIG111      0.0401
     11 C           3.6749    0.2922   -5.1922 C.3     1  LIG111     -0.0773
     12 H           4.7527    0.4754   -4.9064 H       1  LIG111      0.0067
     13 H           3.1148    1.2696   -5.1444 H       1  LIG111      0.0067
     14 N           3.6411   -0.1935   -6.6100 N.4     1  LIG111      0.3784
     15 H           2.6561   -0.3216   -6.8781 H       1  LIG111     -0.0822
     16 C           4.2627    0.7952   -7.5249 C.3     1  LIG111     -0.1032
     17 H           3.7018    1.7664   -7.4620 H       1  LIG111      0.0023
     18 H           4.2221    0.4028   -8.5766 H       1  LIG111      0.0023
     19 H           5.3327    0.9630   -7.2285 H       1  LIG111      0.0023
     20 C           3.2131   -0.1374   -2.8217 C.2     1  LIG111      0.3090
     21 O           2.0250    0.0966   -2.2004 O.3     1  LIG111     -0.4645
     22 C           2.0979    0.6472   -0.8622 C.3     1  LIG111      0.0925
     23 H           2.6594   -0.0795   -0.2187 H       1  LIG111      0.0697
     24 H           1.0546    0.7683   -0.4710 H       1  LIG111      0.0697
     25 C           2.8249    1.9712   -0.9847 C.3     1  LIG111     -0.0185
     26 H           3.8653    1.7954   -1.3653 H       1  LIG111      0.0298
     27 H           2.9084    2.4101    0.0457 H       1  LIG111      0.0298
     28 C           2.1000    2.9367   -1.8973 C.3     1  LIG111     -0.0497
     29 H           1.5559    2.3680   -2.6976 H       1  LIG111      0.0266
     30 H           2.8507    3.5952   -2.4089 H       1  LIG111      0.0266
     31 C           1.1136    3.7859   -1.1229 C.3     1  LIG111     -0.0490
     32 H           0.3435    3.1191   -0.6527 H       1  LIG111      0.0268
     33 H           0.5716    4.4619   -1.8364 H       1  LIG111      0.0268
     34 C           1.7977    4.6110   -0.0433 C.3     1  LIG111     -0.0277
     35 H           2.1304    5.5991   -0.4636 H       1  LIG111      0.0313
     36 H           2.7273    4.0849    0.3037 H       1  LIG111      0.0313
     37 C           0.9160    4.8693    1.1283 C.ar    1  LIG111     -0.0474
     38 C          -0.0725    3.9425    1.4827 C.ar    1  LIG111     -0.0586
     39 H          -0.1833    3.0175    0.8977 H       1  LIG111      0.0620
     40 C          -0.9110    4.1880    2.5676 C.ar    1  LIG111     -0.0615
     41 H          -1.6851    3.4546    2.8378 H       1  LIG111      0.0618
     42 C          -0.7689    5.3627    3.3106 C.ar    1  LIG111     -0.0617
     43 H          -1.4308    5.5561    4.1676 H       1  LIG111      0.0618
     44 C           0.2129    6.2891    2.9620 C.ar    1  LIG111     -0.0615
     45 H           0.3270    7.2153    3.5449 H       1  LIG111      0.0618
     46 C           1.0532    6.0443    1.8754 C.ar    1  LIG111     -0.0586
     47 H           1.8260    6.7799    1.6065 H       1  LIG111      0.0620
     48 O           4.2702    0.0932   -2.2421 O.2     1  LIG111     -0.2506
     49 C           3.0716   -3.0994   -3.4462 C.ar    1  LIG111     -0.0435
     50 C           3.8440   -4.1242   -2.8869 C.ar    1  LIG111     -0.0569
     51 H           4.9263   -4.1734   -3.0849 H       1  LIG111      0.0621
     52 C           3.2571   -5.0897   -2.0718 C.ar    1  LIG111     -0.0431
     53 H           3.8737   -5.8916   -1.6353 H       1  LIG111      0.0632
     54 C           1.8832   -5.0316   -1.8124 C.ar    1  LIG111      0.0410
     55 C           1.1016   -4.0125   -2.3664 C.ar    1  LIG111     -0.0431
     56 H           0.0207   -3.9660   -2.1591 H       1  LIG111      0.0632
     57 C           1.6982   -3.0541   -3.1810 C.ar    1  LIG111     -0.0569
     58 H           1.0746   -2.2566   -3.6122 H       1  LIG111      0.0621
     59 CL          1.1632   -6.2013   -0.8231 Cl      1  LIG111     -0.0835
@<TRIPOS>BOND
     1    18    16    1
     2     2     1    1
     3    16    17    1
     4    16    19    1
     5    16    14    1
     6    15    14    1
     7     1    14    1
     8     1     3    1
     9     1     4    1
    10    14    11    1
    11     6     4    1
    12     5     4    1
    13     4     7    1
    14    11    13    1
    15    11    12    1
    16    11     9    1
    17    10     9    1
    18     7     9    1
    19     7     8    1
    20     7    49    1
    21     9    20    1
    22    58    57    1
    23    49    57   ar
    24    49    50   ar
    25    57    55   ar
    26    51    50    1
    27    50    52   ar
    28    20    48    2
    29    20    21    1
    30    29    28    1
    31    30    28    1
    32    55    56    1
    33    55    54   ar
    34    21    22    1
    35    52    54   ar
    36    52    53    1
    37    28    31    1
    38    28    25    1
    39    33    31    1
    40    54    59    1
    41    26    25    1
    42    31    32    1
    43    31    34    1
    44    25    22    1
    45    25    27    1
    46    22    24    1
    47    22    23    1
    48    35    34    1
    49    34    36    1
    50    34    37    1
    51    39    38    1
    52    37    38   ar
    53    37    46   ar
    54    38    40   ar
    55    47    46    1
    56    46    44   ar
    57    40    41    1
    58    40    42   ar
    59    44    42   ar
    60    44    45    1
    61    42    43    1
