@<TRIPOS>MOLECULE
1i
 38 39 0 0 0
SMALL
GASTEIGER

@<TRIPOS>ATOM
      1 C           4.4793   -1.8842   -6.4766 C.3     1  LIG111     -0.0904
      2 H           4.4913   -2.1603   -7.5464 H       1  LIG111      0.0059
      3 H           5.5309   -1.8025   -6.1509 H       1  LIG111      0.0059
      4 C           3.8043   -3.0426   -5.6902 C.3     1  LIG111     -0.0605
      5 H           4.3734   -3.9784   -5.8259 H       1  LIG111      0.0253
      6 H           2.7926   -3.2037   -6.0936 H       1  LIG111      0.0253
      7 C           3.7482   -2.6882   -4.1812 C.3     1  LIG111     -0.0082
      8 H           4.7931   -2.5676   -3.8539 H       1  LIG111      0.0355
      9 C           3.0084   -1.3391   -3.9897 C.3     1  LIG111      0.0276
     10 H           1.9825   -1.4504   -4.3787 H       1  LIG111      0.0381
     11 C           3.7024   -0.2272   -4.8251 C.3     1  LIG111     -0.0792
     12 H           4.7172   -0.0565   -4.4297 H       1  LIG111      0.0066
     13 H           3.1340    0.7088   -4.6799 H       1  LIG111      0.0066
     14 N           3.7765   -0.5845   -6.2719 N.4     1  LIG111      0.3784
     15 H           2.7590   -0.6970   -6.6457 H       1  LIG111     -0.0822
     16 C           4.4108    0.5055   -7.0673 C.3     1  LIG111     -0.1032
     17 H           5.2077    1.0098   -6.4951 H       1  LIG111      0.0023
     18 H           3.6711    1.2698   -7.3559 H       1  LIG111      0.0023
     19 H           4.8679    0.1150   -7.9921 H       1  LIG111      0.0023
     20 C           2.8936   -0.9710   -2.5247 C.2     1  LIG111      0.2147
     21 N           2.2077    0.1313   -2.1429 N.am    1  LIG111     -0.3182
     22 C           2.6123    0.8401   -0.9303 C.3     1  LIG111      0.0001
     23 H           1.4337    0.4957   -2.6621 H       1  LIG111      0.1484
     24 H           2.3856    1.9137   -1.0252 H       1  LIG111      0.0426
     25 H           3.6925    0.7320   -0.7390 H       1  LIG111      0.0426
     26 H           2.0675    0.4389   -0.0610 H       1  LIG111      0.0426
     27 H           1.1398   -3.6490   -4.2812 H       1  LIG111      0.0621
     28 H           0.1179   -5.4348   -2.9341 H       1  LIG111      0.0632
     29 H           3.8115   -5.9848   -0.8187 H       1  LIG111      0.0632
     30 O           3.4359   -1.6976   -1.7081 O.2     1  LIG111     -0.2756
     31 C           3.0861   -3.7960   -3.3383 C.ar    1  LIG111     -0.0436
     32 C           1.7453   -4.1513   -3.5357 C.ar    1  LIG111     -0.0569
     33 H           4.8583   -4.2040   -2.1614 H       1  LIG111      0.0621
     34 C           1.1557   -5.1622   -2.7708 C.ar    1  LIG111     -0.0431
     35 C           1.8991   -5.8254   -1.7924 C.ar    1  LIG111      0.0410
     36 C           3.2334   -5.4724   -1.5812 C.ar    1  LIG111     -0.0431
     37 C           3.8210   -4.4627   -2.3488 C.ar    1  LIG111     -0.0569
     38 CL          1.1613   -7.0930   -0.8347 Cl      1  LIG111     -0.0835
@<TRIPOS>BOND
     1    19    16    1
     2     2     1    1
     3    18    16    1
     4    16    17    1
     5    16    14    1
     6    15    14    1
     7     1    14    1
     8     1     3    1
     9     1     4    1
    10    14    11    1
    11     6     4    1
    12     5     4    1
    13     4     7    1
    14    11    13    1
    15    11    12    1
    16    11     9    1
    17    10     9    1
    18    27    32    1
    19     7     9    1
    20     7     8    1
    21     7    31    1
    22     9    20    1
    23    32    31   ar
    24    32    34   ar
    25    31    37   ar
    26    28    34    1
    27    34    35   ar
    28    23    21    1
    29    20    21   am
    30    20    30    2
    31    37    33    1
    32    37    36   ar
    33    21    22    1
    34    35    36   ar
    35    35    38    1
    36    36    29    1
    37    24    22    1
    38    22    25    1
    39    22    26    1
