@<TRIPOS>MOLECULE
1j
 41 42 0 0 0
SMALL
GASTEIGER

@<TRIPOS>ATOM
      1 C           4.5344   -1.8823   -6.4402 C.3     1  LIG111     -0.0904
      2 H           4.4898   -2.1481   -7.5342 H       1  LIG111      0.0059
      3 H           5.6145   -1.7443   -6.1457 H       1  LIG111      0.0059
      4 C           3.8999   -2.9739   -5.5939 C.3     1  LIG111     -0.0605
      5 H           4.4950   -3.9155   -5.7476 H       1  LIG111      0.0253
      6 H           2.8536   -3.1850   -5.9403 H       1  LIG111      0.0253
      7 C           3.9093   -2.6104   -4.1140 C.3     1  LIG111     -0.0082
      8 H           4.9866   -2.5230   -3.7772 H       1  LIG111      0.0355
      9 C           3.2549   -1.2436   -3.8799 C.3     1  LIG111      0.0277
     10 H           2.1490   -1.3203   -4.0564 H       1  LIG111      0.0381
     11 C           3.8587   -0.1768   -4.8052 C.3     1  LIG111     -0.0792
     12 H           4.9353    0.0046   -4.5057 H       1  LIG111      0.0066
     13 H           3.2863    0.7880   -4.6964 H       1  LIG111      0.0066
     14 N           3.8353   -0.5675   -6.2506 N.4     1  LIG111      0.3784
     15 H           2.8541   -0.6895   -6.5332 H       1  LIG111     -0.0822
     16 C           4.4472    0.4895   -7.0930 C.3     1  LIG111     -0.1032
     17 H           3.8702    1.4446   -6.9666 H       1  LIG111      0.0023
     18 H           4.4209    0.1750   -8.1708 H       1  LIG111      0.0023
     19 H           5.5134    0.6466   -6.7768 H       1  LIG111      0.0023
     20 C           3.5884   -0.7662   -2.4544 C.2     1  LIG111      0.2170
     21 N           3.1167    0.4392   -1.9957 N.am    1  LIG111     -0.3074
     22 C           1.9578    1.0396   -2.6129 C.3     1  LIG111      0.0028
     23 H           1.2099    1.2960   -1.8158 H       1  LIG111      0.0428
     24 H           1.4892    0.3271   -3.3433 H       1  LIG111      0.0428
     25 H           2.2539    1.9774   -3.1552 H       1  LIG111      0.0428
     26 C           3.8241    1.2278   -1.0259 C.3     1  LIG111      0.0028
     27 H           4.8801    1.3926   -1.3705 H       1  LIG111      0.0428
     28 H           3.8553    0.7094   -0.0278 H       1  LIG111      0.0428
     29 H           3.3306    2.2302   -0.9053 H       1  LIG111      0.0428
     30 O           4.3318   -1.4959   -1.7618 O.2     1  LIG111     -0.2754
     31 C           3.2429   -3.6910   -3.3228 C.ar    1  LIG111     -0.0436
     32 C           4.0083   -4.7534   -2.8266 C.ar    1  LIG111     -0.0569
     33 H           5.0958   -4.7829   -3.0016 H       1  LIG111      0.0621
     34 C           3.4063   -5.7807   -2.1032 C.ar    1  LIG111     -0.0431
     35 H           4.0172   -6.6122   -1.7158 H       1  LIG111      0.0632
     36 C           2.0257   -5.7517   -1.8739 C.ar    1  LIG111      0.0410
     37 C           1.2511   -4.6956   -2.3693 C.ar    1  LIG111     -0.0431
     38 H           0.1637   -4.6753   -2.1943 H       1  LIG111      0.0632
     39 C           1.8625   -3.6724   -3.0884 C.ar    1  LIG111     -0.0569
     40 H           1.2452   -2.8470   -3.4739 H       1  LIG111      0.0621
     41 CL          1.2880   -6.9973   -0.9970 Cl      1  LIG111     -0.0835
@<TRIPOS>BOND
     1    18    16    1
     2     2     1    1
     3    16    17    1
     4    16    19    1
     5    16    14    1
     6    15    14    1
     7     1    14    1
     8     1     3    1
     9     1     4    1
    10    14    11    1
    11     6     4    1
    12     5     4    1
    13     4     7    1
    14    11    13    1
    15    11    12    1
    16    11     9    1
    17     7     9    1
    18     7     8    1
    19     7    31    1
    20    10     9    1
    21     9    20    1
    22    40    39    1
    23    24    22    1
    24    31    39   ar
    25    31    32   ar
    26    25    22    1
    27    39    37   ar
    28    33    32    1
    29    32    34   ar
    30    22    21    1
    31    22    23    1
    32    20    21   am
    33    20    30    2
    34    37    38    1
    35    37    36   ar
    36    34    36   ar
    37    34    35    1
    38    21    26    1
    39    36    41    1
    40    27    26    1
    41    26    29    1
    42    26    28    1
