@<TRIPOS>MOLECULE
1p
 42 43 0 0 0
SMALL
GASTEIGER

@<TRIPOS>ATOM
      1 C           4.3985   -1.8220   -6.4471 C.3     1  LIG111     -0.0904
      2 H           4.3430   -2.0771   -7.5206 H       1  LIG111      0.0059
      3 H           5.4680   -1.7764   -6.1775 H       1  LIG111      0.0059
      4 C           3.7353   -2.9754   -5.6460 C.3     1  LIG111     -0.0609
      5 H           4.2751   -3.9203   -5.8307 H       1  LIG111      0.0253
      6 H           2.6936   -3.1112   -5.9793 H       1  LIG111      0.0253
      7 C           3.7639   -2.6542   -4.1311 C.3     1  LIG111     -0.0143
      8 H           4.8202   -2.5363   -3.8419 H       1  LIG111      0.0351
      9 C           3.0611   -1.2908   -3.8736 C.3     1  LIG111     -0.0256
     10 H           2.0149   -1.3491   -4.2145 H       1  LIG111      0.0310
     11 C           3.7587   -0.1867   -4.7208 C.3     1  LIG111     -0.0854
     12 H           4.7977   -0.0709   -4.3682 H       1  LIG111      0.0062
     13 H           3.2444    0.7722   -4.5332 H       1  LIG111      0.0062
     14 N           3.7464   -0.5095   -6.1765 N.4     1  LIG111      0.3781
     15 H           2.7073   -0.5865   -6.4944 H       1  LIG111     -0.0822
     16 C           4.3692    0.5796   -6.9816 C.3     1  LIG111     -0.1032
     17 H           5.4407    0.6839   -6.7454 H       1  LIG111      0.0023
     18 H           3.8862    1.5514   -6.7858 H       1  LIG111      0.0023
     19 H           4.2813    0.3811   -8.0629 H       1  LIG111      0.0023
     20 C           3.0351   -0.9040   -2.3670 C.3     1  LIG111      0.0497
     21 H           3.8441   -1.4113   -1.8163 H       1  LIG111      0.0562
     22 H           2.0858   -1.2644   -1.9390 H       1  LIG111      0.0562
     23 O           2.9857    0.5277   -2.1928 O.3     1  LIG111     -0.3756
     24 C           1.6566    1.0830   -2.1314 C.3     1  LIG111      0.0656
     25 H           0.9517    0.2402   -2.1899 H       1  LIG111      0.0604
     26 H           1.4566    1.7411   -2.9866 H       1  LIG111      0.0604
     27 C           1.4334    1.7862   -0.8147 C.2     1  LIG111     -0.0658
     28 H           1.0353    1.1946    0.0108 H       1  LIG111      0.0589
     29 C           1.7037    3.0833   -0.6219 C.2     1  LIG111     -0.1005
     30 H           2.1015    3.6935   -1.4330 H       1  LIG111      0.0532
     31 H           1.5374    3.5688    0.3392 H       1  LIG111      0.0532
     32 C           3.1511   -3.8292   -3.3403 C.ar    1  LIG111     -0.0440
     33 C           2.0614   -3.6081   -2.4876 C.ar    1  LIG111     -0.0569
     34 H           1.6797   -2.6048   -2.3279 H       1  LIG111      0.0621
     35 C           1.4461   -4.6720   -1.8215 C.ar    1  LIG111     -0.0431
     36 H           0.5892   -4.4927   -1.1804 H       1  LIG111      0.0632
     37 C           1.9337   -5.9711   -1.9788 C.ar    1  LIG111      0.0410
     38 C           3.0499   -6.1957   -2.7872 C.ar    1  LIG111     -0.0431
     39 H           3.4379   -7.2031   -2.8990 H       1  LIG111      0.0632
     40 C           3.6650   -5.1281   -3.4471 C.ar    1  LIG111     -0.0569
     41 H           4.5504   -5.3315   -4.0374 H       1  LIG111      0.0621
     42 CL          1.1518   -7.3100   -1.1646 Cl      1  LIG111     -0.0835
@<TRIPOS>BOND
     1    19    16    1
     2     2     1    1
     3    16    18    1
     4    16    17    1
     5    16    14    1
     6    15    14    1
     7     1     3    1
     8     1    14    1
     9     1     4    1
    10    14    11    1
    11     6     4    1
    12     5     4    1
    13     4     7    1
    14    11    13    1
    15    11    12    1
    16    11     9    1
    17    10     9    1
    18     7     9    1
    19     7     8    1
    20     7    32    1
    21    41    40    1
    22     9    20    1
    23    40    32   ar
    24    40    38   ar
    25    32    33   ar
    26    26    24    1
    27    39    38    1
    28    38    37   ar
    29    33    34    1
    30    33    35   ar
    31    20    23    1
    32    20    22    1
    33    20    21    1
    34    23    24    1
    35    25    24    1
    36    24    27    1
    37    37    35   ar
    38    37    42    1
    39    35    36    1
    40    30    29    1
    41    27    29    2
    42    27    28    1
    43    29    31    1
