@<TRIPOS>MOLECULE
1q
 45 47 0 0 0
SMALL
GASTEIGER

@<TRIPOS>ATOM
      1 C           4.4550   -1.7340   -6.3458 C.3     1  LIG111     -0.0904
      2 H           4.3584   -1.8488   -7.4631 H       1  LIG111      0.0059
      3 H           5.5498   -1.6914   -6.0811 H       1  LIG111      0.0059
      4 C           3.7857   -2.8998   -5.6339 C.3     1  LIG111     -0.0609
      5 H           4.3346   -3.8368   -5.9237 H       1  LIG111      0.0253
      6 H           2.7244   -3.0176   -5.9782 H       1  LIG111      0.0253
      7 C           3.8336   -2.7291   -4.1191 C.3     1  LIG111     -0.0133
      8 H           4.9181   -2.7084   -3.8039 H       1  LIG111      0.0351
      9 C           3.2016   -1.3897   -3.7246 C.3     1  LIG111     -0.0148
     10 H           2.1103   -1.4170   -4.0040 H       1  LIG111      0.0321
     11 C           3.8851   -0.2423   -4.4719 C.3     1  LIG111     -0.0844
     12 H           4.9659   -0.1734   -4.1554 H       1  LIG111      0.0063
     13 H           3.3769    0.7327   -4.2173 H       1  LIG111      0.0063
     14 N           3.8422   -0.4195   -5.9611 N.4     1  LIG111      0.3781
     15 H           2.8546   -0.4365   -6.2482 H       1  LIG111     -0.0822
     16 C           4.5182    0.7077   -6.6479 C.3     1  LIG111     -0.1032
     17 H           4.0044    1.6714   -6.3877 H       1  LIG111      0.0023
     18 H           4.4690    0.5488   -7.7588 H       1  LIG111      0.0023
     19 H           5.5910    0.7535   -6.3193 H       1  LIG111      0.0023
     20 C           3.2860   -1.1499   -2.2093 C.3     1  LIG111      0.0912
     21 H           4.1418   -1.7205   -1.7635 H       1  LIG111      0.0699
     22 H           2.3269   -1.4835   -1.7244 H       1  LIG111      0.0699
     23 O           3.3656    0.2489   -1.9298 O.3     1  LIG111     -0.4917
     24 C           2.1550    0.9070   -1.7500 C.ar    1  LIG111      0.1206
     25 C           2.1778    2.0104   -0.8845 C.ar    1  LIG111     -0.0190
     26 H           3.1309    2.3487   -0.4515 H       1  LIG111      0.0654
     27 C           0.9820    2.6584   -0.5824 C.ar    1  LIG111     -0.0452
     28 H           0.9994    3.5253    0.0994 H       1  LIG111      0.0629
     29 C          -0.2206    2.2217   -1.1445 C.ar    1  LIG111      0.0136
     30 C          -0.2283    1.1290   -2.0123 C.ar    1  LIG111     -0.0452
     31 H          -1.1721    0.7827   -2.4647 H       1  LIG111      0.0629
     32 C           0.9564    0.4616   -2.3184 C.ar    1  LIG111     -0.0190
     33 H           0.9451   -0.3937   -3.0073 H       1  LIG111      0.0654
     34 I          -1.9455    3.1722   -0.7059 I       1  LIG111     -0.0438
     35 C           3.1566   -3.8783   -3.4437 C.ar    1  LIG111     -0.0439
     36 C           3.8505   -4.7062   -2.5529 C.ar    1  LIG111     -0.0569
     37 H           4.9159   -4.5270   -2.3438 H       1  LIG111      0.0621
     38 C           3.2043   -5.7651   -1.9219 C.ar    1  LIG111     -0.0431
     39 H           3.7575   -6.4105   -1.2209 H       1  LIG111      0.0632
     40 C           1.8492   -6.0062   -2.1814 C.ar    1  LIG111      0.0410
     41 C           1.1474   -5.1865   -3.0725 C.ar    1  LIG111     -0.0431
     42 H           0.0815   -5.3742   -3.2791 H       1  LIG111      0.0632
     43 C           1.8027   -4.1284   -3.6987 C.ar    1  LIG111     -0.0569
     44 H           1.2429   -3.4876   -4.3978 H       1  LIG111      0.0621
     45 CL          1.0601   -7.2922   -1.4154 Cl      1  LIG111     -0.0835
@<TRIPOS>BOND
     1    18    16    1
     2     2     1    1
     3    16    17    1
     4    16    19    1
     5    16    14    1
     6     1     3    1
     7     1    14    1
     8     1     4    1
     9    15    14    1
    10     6     4    1
    11    14    11    1
    12     5     4    1
    13     4     7    1
    14    11    13    1
    15    11    12    1
    16    11     9    1
    17    44    43    1
    18     7     8    1
    19     7     9    1
    20     7    35    1
    21    10     9    1
    22     9    20    1
    23    43    35   ar
    24    43    41   ar
    25    35    36   ar
    26    42    41    1
    27    41    40   ar
    28    33    32    1
    29    36    37    1
    30    36    38   ar
    31    31    30    1
    32    32    30   ar
    33    32    24   ar
    34    20    23    1
    35    20    21    1
    36    20    22    1
    37    40    38   ar
    38    40    45    1
    39    30    29   ar
    40    23    24    1
    41    38    39    1
    42    24    25   ar
    43    29    34    1
    44    29    27   ar
    45    25    27   ar
    46    25    26    1
    47    27    28    1
