@<TRIPOS>MOLECULE
1s
 48 51 0 0 0
SMALL
GASTEIGER

@<TRIPOS>ATOM
      1 C           4.4217   -1.9294   -6.5251 C.3     1  LIG111     -0.0904
      2 H           4.4030   -2.1837   -7.6248 H       1  LIG111      0.0059
      3 H           5.4934   -1.8260   -6.1901 H       1  LIG111      0.0059
      4 C           3.7119   -3.0094   -5.7273 C.3     1  LIG111     -0.0606
      5 H           4.2979   -3.9637   -5.8448 H       1  LIG111      0.0253
      6 H           2.6877   -3.2004   -6.1450 H       1  LIG111      0.0253
      7 C           3.6278   -2.6577   -4.2461 C.3     1  LIG111     -0.0094
      8 H           4.6816   -2.5982   -3.8384 H       1  LIG111      0.0354
      9 C           2.9856   -1.2762   -4.0398 C.3     1  LIG111      0.0142
     10 H           1.8909   -1.3281   -4.2858 H       1  LIG111      0.0368
     11 C           3.6794   -0.2193   -4.9163 C.3     1  LIG111     -0.0804
     12 H           4.7366   -0.0666   -4.5429 H       1  LIG111      0.0066
     13 H           3.1258    0.7602   -4.8406 H       1  LIG111      0.0066
     14 N           3.7536   -0.5933   -6.3613 N.4     1  LIG111      0.3783
     15 H           2.7940   -0.6757   -6.7231 H       1  LIG111     -0.0822
     16 C           4.4655    0.4544   -7.1407 C.3     1  LIG111     -0.1032
     17 H           3.9113    1.4275   -7.0401 H       1  LIG111      0.0023
     18 H           4.5071    0.1600   -8.2240 H       1  LIG111      0.0023
     19 H           5.5091    0.5722   -6.7422 H       1  LIG111      0.0023
     20 C           3.1778   -0.8322   -2.5960 C.2     1  LIG111      0.1668
     21 C           2.1628    0.0429   -1.9810 C.2     1  LIG111      0.0388
     22 C           2.4794    1.3606   -1.4085 C.ar    1  LIG111      0.0063
     23 C           1.2620    1.8947   -0.8710 C.ar    1  LIG111      0.0226
     24 C           1.2042    3.1281   -0.2466 C.ar    1  LIG111     -0.0414
     25 H           0.2733    3.5466    0.1689 H       1  LIG111      0.0636
     26 C           2.4108    3.8475   -0.1527 C.ar    1  LIG111     -0.0600
     27 H           2.3996    4.8365    0.3416 H       1  LIG111      0.0618
     28 C           3.6029    3.3372   -0.6586 C.ar    1  LIG111     -0.0611
     29 H           4.5345    3.9240   -0.5567 H       1  LIG111      0.0618
     30 C           3.6529    2.0830   -1.2933 C.ar    1  LIG111     -0.0522
     31 H           4.6068    1.6803   -1.6760 H       1  LIG111      0.0624
     32 N           0.1698    0.9208   -1.0852 N.pl3   1  LIG111     -0.3848
     33 H          -0.5773    1.3247   -1.6627 H       1  LIG111      0.1280
     34 H          -0.2165    0.6036   -0.1864 H       1  LIG111      0.1280
     35 C           0.8331   -0.2064   -1.7934 C.2     1  LIG111     -0.0115
     36 H           0.2174   -1.0875   -2.0321 H       1  LIG111      0.0773
     37 O           4.1735   -1.1844   -1.9612 O.2     1  LIG111     -0.2918
     38 C           2.8859   -3.7352   -3.5204 C.ar    1  LIG111     -0.0436
     39 C           3.4908   -4.4591   -2.4840 C.ar    1  LIG111     -0.0569
     40 H           4.5319   -4.2498   -2.1935 H       1  LIG111      0.0621
     41 C           2.7726   -5.4211   -1.7797 C.ar    1  LIG111     -0.0431
     42 H           3.2460   -5.9629   -0.9439 H       1  LIG111      0.0632
     43 C           1.4336   -5.6717   -2.1107 C.ar    1  LIG111      0.0410
     44 C           0.8203   -4.9498   -3.1413 C.ar    1  LIG111     -0.0431
     45 H          -0.2400   -5.1282   -3.3909 H       1  LIG111      0.0632
     46 C           1.5453   -3.9852   -3.8389 C.ar    1  LIG111     -0.0569
     47 H           1.0449   -3.4101   -4.6356 H       1  LIG111      0.0621
     48 CL          0.5618   -6.8389   -1.2585 Cl      1  LIG111     -0.0835
@<TRIPOS>BOND
     1    18    16    1
     2     2     1    1
     3    16    17    1
     4    16    19    1
     5    16    14    1
     6    15    14    1
     7     1    14    1
     8     1     3    1
     9     1     4    1
    10    14    11    1
    11     6     4    1
    12     5     4    1
    13     4     7    1
    14    11    13    1
    15    11    12    1
    16    11     9    1
    17    47    46    1
    18    10     9    1
    19     7     9    1
    20     7     8    1
    21     7    38    1
    22     9    20    1
    23    46    38   ar
    24    46    44   ar
    25    38    39   ar
    26    45    44    1
    27    44    43   ar
    28    20    21    1
    29    20    37    2
    30    39    40    1
    31    39    41   ar
    32    43    41   ar
    33    43    48    1
    34    36    35    1
    35    21    35    2
    36    21    22    1
    37    35    32    1
    38    41    42    1
    39    31    30    1
    40    33    32    1
    41    22    30   ar
    42    22    23   ar
    43    30    28   ar
    44    32    23    1
    45    32    34    1
    46    23    24   ar
    47    28    29    1
    48    28    26   ar
    49    24    26   ar
    50    24    25    1
    51    26    27    1
