@<TRIPOS>MOLECULE
1v
 47 49 0 0 0
SMALL
GASTEIGER

@<TRIPOS>ATOM
      1 C           4.6057   -1.7099   -6.9728 C.3     1  LIG111     -0.0904
      2 H           4.5799   -2.0244   -8.0316 H       1  LIG111      0.0059
      3 H           5.6655   -1.6875   -6.6648 H       1  LIG111      0.0059
      4 C           3.8668   -2.7873   -6.1335 C.3     1  LIG111     -0.0609
      5 H           4.3675   -3.7646   -6.2441 H       1  LIG111      0.0253
      6 H           2.8380   -2.8913   -6.5116 H       1  LIG111      0.0253
      7 C           3.8637   -2.3786   -4.6379 C.3     1  LIG111     -0.0133
      8 H           4.9191   -2.3084   -4.3255 H       1  LIG111      0.0351
      9 C           3.2224   -0.9735   -4.4667 C.3     1  LIG111     -0.0147
     10 H           2.1668   -1.0094   -4.7843 H       1  LIG111      0.0321
     11 C           3.9753    0.0478   -5.3691 C.3     1  LIG111     -0.0844
     12 H           5.0101    0.1517   -5.0004 H       1  LIG111      0.0063
     13 H           3.4893    1.0326   -5.2548 H       1  LIG111      0.0063
     14 N           3.9906   -0.3632   -6.8021 N.4     1  LIG111      0.3781
     15 H           2.9576   -0.4234   -7.1428 H       1  LIG111     -0.0822
     16 C           4.6752    0.6537   -7.6506 C.3     1  LIG111     -0.1032
     17 H           5.7446    0.7377   -7.3942 H       1  LIG111      0.0023
     18 H           4.2203    1.6494   -7.5216 H       1  LIG111      0.0023
     19 H           4.6140    0.3929   -8.7205 H       1  LIG111      0.0023
     20 C           3.2651   -0.5277   -2.9783 C.3     1  LIG111      0.0944
     21 H           4.1960    0.0309   -2.7808 H       1  LIG111      0.0700
     22 H           3.2488   -1.4172   -2.3256 H       1  LIG111      0.0700
     23 O           2.1122    0.3015   -2.7320 O.3     1  LIG111     -0.4609
     24 C           2.0167    0.7637   -1.4749 C.2     1  LIG111      0.3392
     25 C           0.8436    1.6458   -1.1036 C.ar    1  LIG111      0.0590
     26 C          -0.3851    1.4904   -1.7561 C.ar    1  LIG111     -0.0478
     27 H          -0.5010    0.7419   -2.5335 H       1  LIG111      0.0626
     28 C          -1.4743    2.2974   -1.4144 C.ar    1  LIG111     -0.0610
     29 H          -2.4256    2.1710   -1.9227 H       1  LIG111      0.0618
     30 C          -1.3396    3.2682   -0.4181 C.ar    1  LIG111     -0.0617
     31 H          -2.1854    3.8950   -0.1513 H       1  LIG111      0.0618
     32 C          -0.1143    3.4307    0.2341 C.ar    1  LIG111     -0.0610
     33 H          -0.0076    4.1856    1.0076 H       1  LIG111      0.0618
     34 C           0.9736    2.6221   -0.1087 C.ar    1  LIG111     -0.0478
     35 H           1.9208    2.7581    0.4037 H       1  LIG111      0.0626
     36 O           2.8542    0.4853   -0.6303 O.2     1  LIG111     -0.2450
     37 C           3.1561   -3.4358   -3.7668 C.ar    1  LIG111     -0.0439
     38 C           1.7945   -3.3034   -3.4638 C.ar    1  LIG111     -0.0569
     39 H           1.2231   -2.4619   -3.8427 H       1  LIG111      0.0621
     40 C           1.1445   -4.2530   -2.6701 C.ar    1  LIG111     -0.0431
     41 H           0.0901   -4.1406   -2.4379 H       1  LIG111      0.0632
     42 C           1.8501   -5.3508   -2.1732 C.ar    1  LIG111      0.0410
     43 C           3.2056   -5.4957   -2.4755 C.ar    1  LIG111     -0.0431
     44 H           3.7539   -6.3497   -2.0906 H       1  LIG111      0.0632
     45 C           3.8529   -4.5452   -3.2704 C.ar    1  LIG111     -0.0569
     46 H           4.9038   -4.6880   -3.4943 H       1  LIG111      0.0621
     47 CL          1.0388   -6.5404   -1.1760 Cl      1  LIG111     -0.0835
@<TRIPOS>BOND
     1    19    16    1
     2     2     1    1
     3    16    18    1
     4    16    17    1
     5    16    14    1
     6    15    14    1
     7     1    14    1
     8     1     3    1
     9     1     4    1
    10    14    11    1
    11     6     4    1
    12     5     4    1
    13     4     7    1
    14    11    13    1
    15    11    12    1
    16    11     9    1
    17    10     9    1
    18     7     9    1
    19     7     8    1
    20     7    37    1
    21     9    20    1
    22    39    38    1
    23    37    38   ar
    24    37    45   ar
    25    46    45    1
    26    38    40   ar
    27    45    43   ar
    28    20    21    1
    29    20    23    1
    30    20    22    1
    31    23    24    1
    32    40    41    1
    33    40    42   ar
    34    27    26    1
    35    43    42   ar
    36    43    44    1
    37    42    47    1
    38    29    28    1
    39    26    28   ar
    40    26    25   ar
    41    24    25    1
    42    24    36    2
    43    28    30   ar
    44    25    34   ar
    45    30    31    1
    46    30    32   ar
    47    34    32   ar
    48    34    35    1
    49    32    33    1
