@<TRIPOS>MOLECULE
1w
 45 46 0 0 0
SMALL
GASTEIGER

@<TRIPOS>ATOM
      1 C           4.1455   -1.4895   -6.0886 C.3     1  LIG111     -0.0904
      2 H           4.2685   -1.7786   -7.1477 H       1  LIG111      0.0059
      3 H           5.1553   -1.3108   -5.6800 H       1  LIG111      0.0059
      4 C           3.5079   -2.6877   -5.3340 C.3     1  LIG111     -0.0609
      5 H           4.1634   -3.5727   -5.4045 H       1  LIG111      0.0253
      6 H           2.5486   -2.9402   -5.8119 H       1  LIG111      0.0253
      7 C           3.2987   -2.3208   -3.8422 C.3     1  LIG111     -0.0133
      8 H           4.2954   -2.0973   -3.4264 H       1  LIG111      0.0351
      9 C           2.4351   -1.0346   -3.7212 C.3     1  LIG111     -0.0147
     10 H           1.4331   -1.2244   -4.1416 H       1  LIG111      0.0321
     11 C           3.1018    0.1117   -4.5370 C.3     1  LIG111     -0.0844
     12 H           4.0687    0.3641   -4.0693 H       1  LIG111      0.0063
     13 H           2.4607    1.0072   -4.4615 H       1  LIG111      0.0063
     14 N           3.3147   -0.2582   -5.9657 N.4     1  LIG111      0.3781
     15 H           2.3404   -0.4698   -6.4044 H       1  LIG111     -0.0822
     16 C           3.9072    0.8720   -6.7370 C.3     1  LIG111     -0.1032
     17 H           4.9220    1.1146   -6.3800 H       1  LIG111      0.0023
     18 H           3.2921    1.7818   -6.6429 H       1  LIG111      0.0023
     19 H           3.9862    0.6298   -7.8100 H       1  LIG111      0.0023
     20 C           2.2645   -0.6251   -2.2314 C.3     1  LIG111      0.0957
     21 H           3.2529   -0.4214   -1.7847 H       1  LIG111      0.0700
     22 H           1.7972   -1.4544   -1.6732 H       1  LIG111      0.0700
     23 O           1.4299    0.5493   -2.1795 O.3     1  LIG111     -0.4502
     24 C           1.6911    1.3593   -1.1422 C.2     1  LIG111      0.4003
     25 O           2.7998    1.4628   -0.6416 O.2     1  LIG111     -0.2265
     26 N           0.5997    2.0346   -0.7238 N.am    1  LIG111     -0.2814
     27 H          -0.2756    1.9349   -1.2015 H       1  LIG111      0.1520
     28 C           0.6950    2.9657    0.3987 C.3     1  LIG111      0.0119
     29 H           1.0095    2.4414    1.3171 H       1  LIG111      0.0460
     30 H          -0.2882    3.4248    0.6003 H       1  LIG111      0.0460
     31 C           1.7140    4.0786    0.0526 C.3     1  LIG111     -0.0494
     32 H           1.1966    4.9227   -0.4292 H       1  LIG111      0.0245
     33 H           2.4798    3.6935   -0.6382 H       1  LIG111      0.0245
     34 H           2.2119    4.4410    0.9659 H       1  LIG111      0.0245
     35 C           2.6808   -3.4932   -3.0539 C.ar    1  LIG111     -0.0439
     36 C           1.2949   -3.5920   -2.8749 C.ar    1  LIG111     -0.0569
     37 H           0.6264   -2.8432   -3.2840 H       1  LIG111      0.0621
     38 C           0.7428   -4.6595   -2.1606 C.ar    1  LIG111     -0.0431
     39 H          -0.3323   -4.7304   -2.0297 H       1  LIG111      0.0632
     40 C           1.5725   -5.6394   -1.6115 C.ar    1  LIG111      0.0410
     41 C           2.9558   -5.5471   -1.7794 C.ar    1  LIG111     -0.0431
     42 H           3.6018   -6.3075   -1.3523 H       1  LIG111      0.0632
     43 C           3.5050   -4.4791   -2.4948 C.ar    1  LIG111     -0.0569
     44 H           4.5833   -4.4270   -2.6069 H       1  LIG111      0.0621
     45 CL          0.8815   -6.9769   -0.7160 Cl      1  LIG111     -0.0835
@<TRIPOS>BOND
     1    19    16    1
     2     2     1    1
     3    16    18    1
     4    16    17    1
     5    16    14    1
     6    15    14    1
     7     1    14    1
     8     1     3    1
     9     1     4    1
    10    14    11    1
    11     6     4    1
    12     5     4    1
    13     4     7    1
    14    11    13    1
    15    11    12    1
    16    11     9    1
    17    10     9    1
    18     7     9    1
    19     7     8    1
    20     7    35    1
    21     9    20    1
    22    37    36    1
    23    35    36   ar
    24    35    43   ar
    25    36    38   ar
    26    44    43    1
    27    43    41   ar
    28    20    23    1
    29    20    21    1
    30    20    22    1
    31    23    24    1
    32    38    39    1
    33    38    40   ar
    34    41    40   ar
    35    41    42    1
    36    40    45    1
    37    27    26    1
    38    24    26   am
    39    24    25    2
    40    26    28    1
    41    33    31    1
    42    32    31    1
    43    31    28    1
    44    31    34    1
    45    28    30    1
    46    28    29    1
