@<TRIPOS>MOLECULE
2d
 41 42 0 0 0
SMALL
GASTEIGER

@<TRIPOS>ATOM
      1 C           4.3918   -1.8911   -7.0348 C.3     1  LIG111     -0.0904
      2 H           4.1972   -2.1563   -8.1123 H       1  LIG111      0.0059
      3 H           5.5035   -1.9115   -6.8447 H       1  LIG111      0.0059
      4 C           3.6855   -2.8713   -6.1106 C.3     1  LIG111     -0.0610
      5 H           4.1147   -3.8918   -6.3038 H       1  LIG111      0.0253
      6 H           2.5895   -2.9205   -6.3462 H       1  LIG111      0.0253
      7 C           3.8971   -2.5011   -4.6472 C.3     1  LIG111     -0.0160
      8 H           5.0049   -2.5597   -4.4227 H       1  LIG111      0.0350
      9 C           3.4544   -1.0567   -4.3946 C.3     1  LIG111     -0.0409
     10 H           2.3354   -0.9967   -4.5334 H       1  LIG111      0.0293
     11 C           4.1248   -0.0921   -5.3799 C.3     1  LIG111     -0.0871
     12 H           5.2412   -0.0676   -5.1895 H       1  LIG111      0.0062
     13 H           3.7046    0.9444   -5.2430 H       1  LIG111      0.0062
     14 N           3.9163   -0.4846   -6.8121 N.4     1  LIG111      0.3780
     15 H           2.9078   -0.4585   -7.0076 H       1  LIG111     -0.0822
     16 C           4.6074    0.4601   -7.7228 C.3     1  LIG111     -0.1032
     17 H           4.1964    1.4934   -7.5670 H       1  LIG111      0.0023
     18 H           4.4396    0.1466   -8.7882 H       1  LIG111      0.0023
     19 H           5.7081    0.4530   -7.5009 H       1  LIG111      0.0023
     20 C           3.7486   -0.6055   -2.9712 C.3     1  LIG111      0.0256
     21 H           4.4723    0.2538   -3.0366 H       1  LIG111      0.0361
     22 H           4.2531   -1.4402   -2.4132 H       1  LIG111      0.0361
     23 C           2.5236   -0.1869   -2.1696 C.2     1  LIG111      0.2130
     24 O           1.8937   -1.0057   -1.4586 O.2     1  LIG111     -0.2758
     25 N           2.1564    1.1313   -2.2321 N.am    1  LIG111     -0.3184
     26 H           2.3025    1.6397   -3.0720 H       1  LIG111      0.1484
     27 C           1.5003    1.8081   -1.1538 C.3     1  LIG111      0.0001
     28 H           2.0924    2.7098   -0.8416 H       1  LIG111      0.0426
     29 H           1.3949    1.1199   -0.2714 H       1  LIG111      0.0426
     30 H           0.4782    2.1342   -1.4857 H       1  LIG111      0.0426
     31 C           3.1683   -3.4699   -3.7712 C.ar    1  LIG111     -0.0440
     32 C           3.8861   -4.2332   -2.8421 C.ar    1  LIG111     -0.0569
     33 H           4.9771   -4.1114   -2.7503 H       1  LIG111      0.0621
     34 C           3.2317   -5.1545   -2.0280 C.ar    1  LIG111     -0.0431
     35 H           3.8056   -5.7523   -1.3015 H       1  LIG111      0.0632
     36 C           1.8467   -5.3202   -2.1398 C.ar    1  LIG111      0.0410
     37 C           1.1205   -4.5661   -3.0689 C.ar    1  LIG111     -0.0431
     38 H           0.0309   -4.6989   -3.1624 H       1  LIG111      0.0632
     39 C           1.7837   -3.6482   -3.8795 C.ar    1  LIG111     -0.0569
     40 H           1.2053   -3.0650   -4.6119 H       1  LIG111      0.0621
     41 CL          1.0462   -6.4365   -1.1504 Cl      1  LIG111     -0.0835
@<TRIPOS>BOND
     1    18    16    1
     2     2     1    1
     3    16    17    1
     4    16    19    1
     5    16    14    1
     6     1     3    1
     7     1    14    1
     8     1     4    1
     9    15    14    1
    10    14    11    1
    11     6     4    1
    12     5     4    1
    13     4     7    1
    14    11    13    1
    15    11    12    1
    16    11     9    1
    17     7     8    1
    18     7     9    1
    19     7    31    1
    20    40    39    1
    21    10     9    1
    22     9    20    1
    23    39    31   ar
    24    39    37   ar
    25    31    32   ar
    26    38    37    1
    27    26    25    1
    28    37    36   ar
    29    21    20    1
    30    20    22    1
    31    20    23    1
    32    32    33    1
    33    32    34   ar
    34    25    23   am
    35    25    27    1
    36    23    24    2
    37    36    34   ar
    38    36    41    1
    39    34    35    1
    40    30    27    1
    41    27    28    1
    42    27    29    1
