@<TRIPOS>MOLECULE
2f
 51 53 0 0 0
SMALL
GASTEIGER

@<TRIPOS>ATOM
      1 C           4.5079   -1.9079   -6.5287 C.3     1  LIG111     -0.0904
      2 H           4.4345   -2.1908   -7.6168 H       1  LIG111      0.0059
      3 H           5.5944   -1.7805   -6.2531 H       1  LIG111      0.0059
      4 C           3.8712   -2.9816   -5.6605 C.3     1  LIG111     -0.0610
      5 H           4.4474   -3.9336   -5.8176 H       1  LIG111      0.0253
      6 H           2.8130   -3.1759   -5.9790 H       1  LIG111      0.0253
      7 C           3.9177   -2.5961   -4.1861 C.3     1  LIG111     -0.0160
      8 H           5.0022   -2.5034   -3.8760 H       1  LIG111      0.0350
      9 C           3.2626   -1.2276   -3.9714 C.3     1  LIG111     -0.0409
     10 H           2.1608   -1.3196   -4.1995 H       1  LIG111      0.0293
     11 C           3.8720   -0.1741   -4.9034 C.3     1  LIG111     -0.0871
     12 H           4.9553    0.0033   -4.6240 H       1  LIG111      0.0062
     13 H           3.3046    0.7940   -4.8049 H       1  LIG111      0.0062
     14 N           3.8335   -0.5796   -6.3462 N.4     1  LIG111      0.3780
     15 H           2.8492   -0.6863   -6.6223 H       1  LIG111     -0.0822
     16 C           4.4610    0.4574   -7.2003 C.3     1  LIG111     -0.1032
     17 H           3.9073    1.4276   -7.0831 H       1  LIG111      0.0023
     18 H           4.4176    0.1309   -8.2738 H       1  LIG111      0.0023
     19 H           5.5311    0.5969   -6.8902 H       1  LIG111      0.0023
     20 C           3.3785   -0.7550   -2.5292 C.3     1  LIG111      0.0256
     21 H           4.3074   -1.2236   -2.1002 H       1  LIG111      0.0361
     22 H           2.4983   -1.1314   -1.9415 H       1  LIG111      0.0361
     23 C           3.4364    0.7575   -2.3560 C.2     1  LIG111      0.2135
     24 O           3.9399    1.4986   -3.2339 O.2     1  LIG111     -0.2758
     25 N           2.9219    1.2694   -1.1958 N.am    1  LIG111     -0.3112
     26 H           2.0971    0.8732   -0.8090 H       1  LIG111      0.1490
     27 C           3.4138    2.4817   -0.5832 C.3     1  LIG111      0.0368
     28 H           3.8508    3.1461   -1.3845 H       1  LIG111      0.0512
     29 H           4.2464    2.1958    0.1259 H       1  LIG111      0.0512
     30 C           2.3558    3.2229    0.1802 C.ar    1  LIG111     -0.0303
     31 C           1.0545    2.7165    0.2377 C.ar    1  LIG111     -0.0571
     32 H           0.8056    1.7798   -0.2836 H       1  LIG111      0.0621
     33 C           0.0748    3.3873    0.9673 C.ar    1  LIG111     -0.0615
     34 H          -0.9476    2.9827    1.0146 H       1  LIG111      0.0618
     35 C           0.3900    4.5669    1.6412 C.ar    1  LIG111     -0.0617
     36 H          -0.3831    5.0941    2.2205 H       1  LIG111      0.0618
     37 C           1.6900    5.0721    1.5896 C.ar    1  LIG111     -0.0615
     38 H           1.9424    5.9974    2.1290 H       1  LIG111      0.0618
     39 C           2.6709    4.4045    0.8573 C.ar    1  LIG111     -0.0571
     40 H           3.6963    4.8024    0.8230 H       1  LIG111      0.0621
     41 C           3.2632   -3.6621   -3.3658 C.ar    1  LIG111     -0.0440
     42 C           4.0324   -4.7228   -2.8724 C.ar    1  LIG111     -0.0569
     43 H           5.1140   -4.7645   -3.0776 H       1  LIG111      0.0621
     44 C           3.4420   -5.7370   -2.1215 C.ar    1  LIG111     -0.0431
     45 H           4.0566   -6.5685   -1.7405 H       1  LIG111      0.0632
     46 C           2.0684   -5.6961   -1.8581 C.ar    1  LIG111      0.0410
     47 C           1.2897   -4.6417   -2.3503 C.ar    1  LIG111     -0.0431
     48 H           0.2074   -4.6110   -2.1475 H       1  LIG111      0.0632
     49 C           1.8887   -3.6339   -3.1012 C.ar    1  LIG111     -0.0569
     50 H           1.2654   -2.8142   -3.4889 H       1  LIG111      0.0621
     51 CL          1.3446   -6.9239   -0.9447 Cl      1  LIG111     -0.0835
@<TRIPOS>BOND
     1    18    16    1
     2     2     1    1
     3    16    17    1
     4    16    19    1
     5    16    14    1
     6    15    14    1
     7     1    14    1
     8     1     3    1
     9     1     4    1
    10    14    11    1
    11     6     4    1
    12     5     4    1
    13     4     7    1
    14    11    13    1
    15    11    12    1
    16    11     9    1
    17    10     9    1
    18     7     9    1
    19     7     8    1
    20     7    41    1
    21     9    20    1
    22    50    49    1
    23    41    49   ar
    24    41    42   ar
    25    24    23    2
    26    49    47   ar
    27    43    42    1
    28    42    44   ar
    29    20    23    1
    30    20    21    1
    31    20    22    1
    32    23    25   am
    33    47    48    1
    34    47    46   ar
    35    44    46   ar
    36    44    45    1
    37    46    51    1
    38    28    27    1
    39    25    26    1
    40    25    27    1
    41    27    29    1
    42    27    30    1
    43    32    31    1
    44    30    31   ar
    45    30    39   ar
    46    31    33   ar
    47    40    39    1
    48    39    37   ar
    49    33    34    1
    50    33    35   ar
    51    37    35   ar
    52    37    38    1
    53    35    36    1
