@<TRIPOS>MOLECULE
3c
 41 42 0 0 0
SMALL
GASTEIGER

@<TRIPOS>ATOM
      1 C           4.6659   -1.6113   -6.9329 C.3     1  LIG111     -0.0904
      2 H           4.7123   -1.9569   -7.9814 H       1  LIG111      0.0059
      3 H           5.7055   -1.5378   -6.5692 H       1  LIG111      0.0059
      4 C           3.9249   -2.6963   -6.1026 C.3     1  LIG111     -0.0607
      5 H           4.4707   -3.6543   -6.1530 H       1  LIG111      0.0253
      6 H           2.9249   -2.8565   -6.5345 H       1  LIG111      0.0253
      7 C           3.8209   -2.2401   -4.6243 C.3     1  LIG111     -0.0130
      8 H           4.8560   -2.1230   -4.2661 H       1  LIG111      0.0353
      9 C           3.1099   -0.8631   -4.5525 C.3     1  LIG111     -0.0305
     10 H           2.0983   -0.9750   -4.9779 H       1  LIG111      0.0331
     11 C           3.8722    0.1718   -5.4249 C.3     1  LIG111     -0.0840
     12 H           4.8733    0.3364   -4.9927 H       1  LIG111      0.0065
     13 H           3.3289    1.1316   -5.3658 H       1  LIG111      0.0065
     14 N           3.9961   -0.2819   -6.8405 N.4     1  LIG111      0.3782
     15 H           2.9911   -0.3908   -7.2466 H       1  LIG111     -0.0822
     16 C           4.6960    0.7360   -7.6753 C.3     1  LIG111     -0.1032
     17 H           5.7439    0.8661   -7.3572 H       1  LIG111      0.0023
     18 H           4.1996    1.7175   -7.6035 H       1  LIG111      0.0023
     19 H           4.7095    0.4439   -8.7387 H       1  LIG111      0.0023
     20 C           2.9460   -0.3840   -3.1250 C.2     1  LIG111     -0.0754
     21 H           3.7290   -0.6404   -2.4085 H       1  LIG111      0.0576
     22 C           1.9009    0.3341   -2.6902 C.2     1  LIG111      0.0188
     23 H           1.0927    0.6155   -3.3622 H       1  LIG111      0.0686
     24 C           1.7423    0.8007   -1.3002 C.2     1  LIG111      0.3314
     25 O           2.7373    1.0392   -0.6327 O.2     1  LIG111     -0.2456
     26 O           0.5067    0.9516   -0.7996 O.3     1  LIG111     -0.4649
     27 C           0.4724    1.4120    0.5666 C.3     1  LIG111      0.0820
     28 H           1.0076    0.7203    1.2370 H       1  LIG111      0.0661
     29 H          -0.5628    1.5409    0.9214 H       1  LIG111      0.0661
     30 H           0.9753    2.3896    0.6058 H       1  LIG111      0.0661
     31 C           3.1016   -3.2769   -3.7390 C.ar    1  LIG111     -0.0438
     32 C           1.7220   -3.1974   -3.5087 C.ar    1  LIG111     -0.0569
     33 H           1.1297   -2.4026   -3.9473 H       1  LIG111      0.0621
     34 C           1.0778   -4.1422   -2.7044 C.ar    1  LIG111     -0.0431
     35 H           0.0084   -4.0740   -2.5324 H       1  LIG111      0.0632
     36 C           1.8077   -5.1784   -2.1180 C.ar    1  LIG111      0.0410
     37 C           3.1839   -5.2645   -2.3382 C.ar    1  LIG111     -0.0431
     38 H           3.7528   -6.0687   -1.8826 H       1  LIG111      0.0632
     39 C           3.8254   -4.3179   -3.1422 C.ar    1  LIG111     -0.0569
     40 H           4.8967   -4.4050   -3.2942 H       1  LIG111      0.0621
     41 CL          1.0012   -6.3635   -1.1116 Cl      1  LIG111     -0.0835
@<TRIPOS>BOND
     1    19    16    1
     2     2     1    1
     3    16    18    1
     4    16    17    1
     5    16    14    1
     6    15    14    1
     7     1    14    1
     8     1     3    1
     9     1     4    1
    10    14    11    1
    11     6     4    1
    12     5     4    1
    13     4     7    1
    14    11    13    1
    15    11    12    1
    16    11     9    1
    17    10     9    1
    18     7     9    1
    19     7     8    1
    20     7    31    1
    21     9    20    1
    22    33    32    1
    23    31    32   ar
    24    31    39   ar
    25    32    34   ar
    26    23    22    1
    27    40    39    1
    28    39    37   ar
    29    20    22    2
    30    20    21    1
    31    34    35    1
    32    34    36   ar
    33    22    24    1
    34    37    36   ar
    35    37    38    1
    36    36    41    1
    37    24    26    1
    38    24    25    2
    39    26    27    1
    40    27    30    1
    41    27    29    1
    42    27    28    1
