@<TRIPOS>MOLECULE
3g
 41 42 0 0 0
SMALL
GASTEIGER

@<TRIPOS>ATOM
      1 C           4.2905   -1.8703   -6.7558 C.3     1  LIG111     -0.0904
      2 H           4.1694   -2.1016   -7.8293 H       1  LIG111      0.0059
      3 H           5.3733   -1.8798   -6.5416 H       1  LIG111      0.0059
      4 C           3.6148   -3.0072   -5.9402 C.3     1  LIG111     -0.0610
      5 H           4.0990   -3.9735   -6.1640 H       1  LIG111      0.0253
      6 H           2.5575   -3.0852   -6.2389 H       1  LIG111      0.0253
      7 C           3.7318   -2.7109   -4.4223 C.3     1  LIG111     -0.0164
      8 H           4.8100   -2.6637   -4.2026 H       1  LIG111      0.0350
      9 C           3.1049   -1.3223   -4.1103 C.3     1  LIG111     -0.0491
     10 H           2.0499   -1.3438   -4.4337 H       1  LIG111      0.0288
     11 C           3.8153   -0.2381   -4.9722 C.3     1  LIG111     -0.0875
     12 H           4.8776   -0.1816   -4.6856 H       1  LIG111      0.0062
     13 H           3.3595    0.7415   -4.7442 H       1  LIG111      0.0062
     14 N           3.7148   -0.5338   -6.4311 N.4     1  LIG111      0.3780
     15 H           2.6592   -0.5551   -6.6992 H       1  LIG111     -0.0822
     16 C           4.3496    0.5399   -7.2481 C.3     1  LIG111     -0.1032
     17 H           5.4350    0.5899   -7.0639 H       1  LIG111      0.0023
     18 H           3.9238    1.5296   -7.0127 H       1  LIG111      0.0023
     19 H           4.2004    0.3663   -8.3270 H       1  LIG111      0.0023
     20 C           3.0723   -0.9751   -2.5870 C.3     1  LIG111     -0.0493
     21 H           3.9804   -0.4041   -2.3325 H       1  LIG111      0.0268
     22 H           3.1150   -1.9235   -2.0286 H       1  LIG111      0.0268
     23 C           1.8353   -0.1640   -2.1044 C.3     1  LIG111     -0.0295
     24 H           1.0197   -0.8415   -1.8079 H       1  LIG111      0.0287
     25 H           1.4738    0.4849   -2.9163 H       1  LIG111      0.0287
     26 C           2.1509    0.7564   -0.8918 C.3     1  LIG111      0.0442
     27 H           2.5530    0.1359   -0.0736 H       1  LIG111      0.0557
     28 H           1.2353    1.2479   -0.5197 H       1  LIG111      0.0557
     29 O           3.1712    1.7256   -1.1868 O.3     1  LIG111     -0.3950
     30 H           2.9501    2.3138   -1.9008 H       1  LIG111      0.2094
     31 C           3.0937   -3.8370   -3.5850 C.ar    1  LIG111     -0.0441
     32 C           1.7565   -3.7439   -3.1763 C.ar    1  LIG111     -0.0569
     33 H           1.1619   -2.8703   -3.4233 H       1  LIG111      0.0621
     34 C           1.1609   -4.7739   -2.4427 C.ar    1  LIG111     -0.0431
     35 H           0.1222   -4.6967   -2.1378 H       1  LIG111      0.0632
     36 C           1.9012   -5.9069   -2.0990 C.ar    1  LIG111      0.0410
     37 C           3.2393   -6.0017   -2.4865 C.ar    1  LIG111     -0.0431
     38 H           3.8171   -6.8792   -2.2138 H       1  LIG111      0.0632
     39 C           3.8316   -4.9713   -3.2225 C.ar    1  LIG111     -0.0569
     40 H           4.8728   -5.0713   -3.5062 H       1  LIG111      0.0621
     41 CL          1.1553   -7.2025   -1.1863 Cl      1  LIG111     -0.0835
@<TRIPOS>BOND
     1    19    16    1
     2     2     1    1
     3    16    17    1
     4    16    18    1
     5    16    14    1
     6     1     3    1
     7     1    14    1
     8     1     4    1
     9    15    14    1
    10    14    11    1
    11     6     4    1
    12     5     4    1
    13     4     7    1
    14    11    13    1
    15    11    12    1
    16    11     9    1
    17    10     9    1
    18     7     8    1
    19     7     9    1
    20     7    31    1
    21     9    20    1
    22    31    39   ar
    23    31    32   ar
    24    40    39    1
    25    33    32    1
    26    39    37   ar
    27    32    34   ar
    28    25    23    1
    29    20    21    1
    30    20    23    1
    31    20    22    1
    32    37    38    1
    33    37    36   ar
    34    34    35    1
    35    34    36   ar
    36    23    24    1
    37    23    26    1
    38    36    41    1
    39    30    29    1
    40    29    26    1
    41    26    28    1
    42    26    27    1
