@<TRIPOS>MOLECULE
3h
 40 41 0 0 0
SMALL
GASTEIGER

@<TRIPOS>ATOM
      1 C           4.5453   -1.8571   -6.4826 C.3     1  LIG111     -0.0904
      2 H           4.5005   -2.1299   -7.5747 H       1  LIG111      0.0059
      3 H           5.6240   -1.7001   -6.1918 H       1  LIG111      0.0059
      4 C           3.9317   -2.9548   -5.6283 C.3     1  LIG111     -0.0610
      5 H           4.5494   -3.8830   -5.7718 H       1  LIG111      0.0253
      6 H           2.8916   -3.1914   -5.9771 H       1  LIG111      0.0253
      7 C           3.9184   -2.5787   -4.1505 C.3     1  LIG111     -0.0164
      8 H           4.9891   -2.4598   -3.8086 H       1  LIG111      0.0350
      9 C           3.2135   -1.2321   -3.9480 C.3     1  LIG111     -0.0491
     10 H           2.1315   -1.3667   -4.2436 H       1  LIG111      0.0288
     11 C           3.8410   -0.1633   -4.8479 C.3     1  LIG111     -0.0875
     12 H           4.9199    0.0003   -4.5533 H       1  LIG111      0.0062
     13 H           3.2742    0.8043   -4.7421 H       1  LIG111      0.0062
     14 N           3.8284   -0.5508   -6.2979 N.4     1  LIG111      0.3780
     15 H           2.8497   -0.6859   -6.5826 H       1  LIG111     -0.0822
     16 C           4.4298    0.5123   -7.1377 C.3     1  LIG111     -0.1032
     17 H           3.8439    1.4620   -7.0122 H       1  LIG111      0.0023
     18 H           4.4059    0.1936   -8.2143 H       1  LIG111      0.0023
     19 H           5.4936    0.6857   -6.8225 H       1  LIG111      0.0023
     20 C           3.2185   -0.7702   -2.4957 C.3     1  LIG111     -0.0490
     21 H           4.1124   -1.2361   -1.9943 H       1  LIG111      0.0268
     22 H           2.3034   -1.2010   -2.0013 H       1  LIG111      0.0268
     23 C           3.2197    0.7162   -2.2170 C.3     1  LIG111     -0.0244
     24 H           3.7362    1.2143   -3.0844 H       1  LIG111      0.0290
     25 H           3.8247    0.9508   -1.3030 H       1  LIG111      0.0290
     26 C           1.8393    1.3582   -2.0920 C.3     1  LIG111      0.0902
     27 H           1.2350    1.1199   -3.0123 H       1  LIG111      0.0615
     28 H           1.2988    0.9511   -1.1920 H       1  LIG111      0.0615
     29 F           1.9087    2.7369   -1.9751 F       1  LIG111     -0.2491
     30 C           3.2736   -3.6711   -3.3570 C.ar    1  LIG111     -0.0441
     31 C           4.0270   -4.7263   -2.8288 C.ar    1  LIG111     -0.0569
     32 H           5.1124   -4.7754   -3.0023 H       1  LIG111      0.0621
     33 C           3.4154   -5.7280   -2.0791 C.ar    1  LIG111     -0.0431
     34 H           4.0159   -6.5548   -1.6676 H       1  LIG111      0.0632
     35 C           2.0354   -5.6766   -1.8510 C.ar    1  LIG111      0.0410
     36 C           1.2723   -4.6261   -2.3725 C.ar    1  LIG111     -0.0431
     37 H           0.1863   -4.5836   -2.1912 H       1  LIG111      0.0632
     38 C           1.8940   -3.6305   -3.1225 C.ar    1  LIG111     -0.0569
     39 H           1.2882   -2.8047   -3.5280 H       1  LIG111      0.0621
     40 CL          1.2872   -6.8909   -0.9389 Cl      1  LIG111     -0.0835
@<TRIPOS>BOND
     1    18    16    1
     2     2     1    1
     3    16    17    1
     4    16    19    1
     5    16    14    1
     6    15    14    1
     7     1    14    1
     8     1     3    1
     9     1     4    1
    10    14    11    1
    11     6     4    1
    12     5     4    1
    13     4     7    1
    14    11    13    1
    15    11    12    1
    16    11     9    1
    17    10     9    1
    18     7     9    1
    19     7     8    1
    20     7    30    1
    21     9    20    1
    22    39    38    1
    23    30    38   ar
    24    30    31   ar
    25    38    36   ar
    26    24    23    1
    27    27    26    1
    28    32    31    1
    29    31    33   ar
    30    20    23    1
    31    20    22    1
    32    20    21    1
    33    36    37    1
    34    36    35   ar
    35    23    26    1
    36    23    25    1
    37    26    29    1
    38    26    28    1
    39    33    35   ar
    40    33    34    1
    41    35    40    1
