@<TRIPOS>MOLECULE
Mol_2h
 54 56 0 0 0
SMALL
GASTEIGER
Energy = 0

@<TRIPOS>ATOM
      1 C           4.4948   -1.7969   -6.4372 C.3     1  LIG11      -0.0904
      2 H           4.4680   -1.9285   -7.5562 H       1  LIG11       0.0059
      3 H           5.5705   -1.7206   -6.1089 H       1  LIG11       0.0059
      4 C           3.8177   -2.9734   -5.7506 C.3     1  LIG11      -0.0610
      5 H           4.4237   -3.8929   -5.9747 H       1  LIG11       0.0253
      6 H           2.7925   -3.1376   -6.1773 H       1  LIG11       0.0253
      7 C           3.7263   -2.7820   -4.2392 C.3     1  LIG11      -0.0160
      8 H           4.7751   -2.7416   -3.8232 H       1  LIG11       0.0350
      9 C           3.0444   -1.4473   -3.9195 C.3     1  LIG11      -0.0409
     10 H           1.9787   -1.4771   -4.2896 H       1  LIG11       0.0293
     11 C           3.7878   -0.3041   -4.6204 C.3     1  LIG11      -0.0871
     12 H           4.8494   -0.2451   -4.2506 H       1  LIG11       0.0062
     13 H           3.2606    0.6742   -4.4043 H       1  LIG11       0.0062
     14 N           3.8279   -0.4952   -6.1068 N.4     1  LIG11       0.3780
     15 H           2.8544   -0.5432   -6.4385 H       1  LIG11      -0.0822
     16 C           4.5026    0.6424   -6.7754 C.3     1  LIG11      -0.1032
     17 H           3.9450    1.5907   -6.5502 H       1  LIG11       0.0023
     18 H           4.5209    0.4720   -7.8846 H       1  LIG11       0.0023
     19 H           5.5563    0.7237   -6.3934 H       1  LIG11       0.0023
     20 C           3.0107   -1.1750   -2.4234 C.3     1  LIG11       0.0258
     21 H           3.8825   -1.6616   -1.9113 H       1  LIG11       0.0361
     22 H           2.0690   -1.6248   -2.0033 H       1  LIG11       0.0361
     23 C           3.0467    0.3204   -2.1376 C.2     1  LIG11       0.2158
     24 O           4.0108    1.0125   -2.5463 O.2     1  LIG11      -0.2756
     25 N           1.9980    0.8854   -1.4505 N.am    1  LIG11      -0.3002
     26 C           1.3120    0.1731   -0.4084 C.3     1  LIG11       0.0035
     27 H           1.0036    0.8819    0.4075 H       1  LIG11       0.0429
     28 H           1.9953   -0.6062    0.0258 H       1  LIG11       0.0429
     29 H           0.3971   -0.3418   -0.8067 H       1  LIG11       0.0429
     30 C           1.6199    2.2676   -1.6854 C.3     1  LIG11       0.0394
     31 H           2.2933    2.6885   -2.4892 H       1  LIG11       0.0514
     32 H           0.5606    2.2652   -2.0761 H       1  LIG11       0.0514
     33 C           1.7041    3.1469   -0.4719 C.ar    1  LIG11      -0.0301
     34 C           2.8880    3.8280   -0.1723 C.ar    1  LIG11      -0.0571
     35 H           3.7606    3.7395   -0.8368 H       1  LIG11       0.0621
     36 C           2.9682    4.6087    0.9807 C.ar    1  LIG11      -0.0615
     37 H           3.9035    5.1364    1.2213 H       1  LIG11       0.0618
     38 C           1.8670    4.7185    1.8304 C.ar    1  LIG11      -0.0617
     39 H           1.9367    5.3340    2.7401 H       1  LIG11       0.0618
     40 C           0.6828    4.0459    1.5280 C.ar    1  LIG11      -0.0615
     41 H          -0.1842    4.1293    2.1997 H       1  LIG11       0.0618
     42 C           0.6026    3.2588    0.3800 C.ar    1  LIG11      -0.0571
     43 H          -0.3244    2.7155    0.1396 H       1  LIG11       0.0621
     44 C           3.0092   -3.9423   -3.6255 C.ar    1  LIG11      -0.0440
     45 C           3.5309   -5.2332   -3.7740 C.ar    1  LIG11      -0.0569
     46 H           4.4677   -5.3921   -4.3305 H       1  LIG11       0.0621
     47 C           2.8722   -6.3305   -3.2236 C.ar    1  LIG11      -0.0431
     48 H           3.2905   -7.3426   -3.3457 H       1  LIG11       0.0632
     49 C           1.6752   -6.1415   -2.5231 C.ar    1  LIG11       0.0410
     50 C           1.1452   -4.8552   -2.3676 C.ar    1  LIG11      -0.0431
     51 H           0.2044   -4.7052   -1.8141 H       1  LIG11       0.0632
     52 C           1.8107   -3.7638   -2.9200 C.ar    1  LIG11      -0.0569
     53 H           1.3845   -2.7569   -2.7939 H       1  LIG11       0.0621
     54 CL          0.8666   -7.4719   -1.8584 Cl      1  LIG11      -0.0835
@<TRIPOS>BOND
     1    18    16    1
     2     2     1    1
     3    16    17    1
     4    16    19    1
     5    16    14    1
     6    15    14    1
     7     1     3    1
     8     1    14    1
     9     1     4    1
    10     6     4    1
    11    14    11    1
    12     5     4    1
    13     4     7    1
    14    11    13    1
    15    11    12    1
    16    11     9    1
    17    46    45    1
    18    10     9    1
    19     7     9    1
    20     7     8    1
    21     7    44    1
    22     9    20    1
    23    45    44   ar
    24    45    47   ar
    25    44    52   ar
    26    48    47    1
    27    47    49   ar
    28    52    53    1
    29    52    50   ar
    30    24    23    2
    31    49    50   ar
    32    49    54    1
    33    31    30    1
    34    20    23    1
    35    20    22    1
    36    20    21    1
    37    50    51    1
    38    23    25   am
    39    32    30    1
    40    30    25    1
    41    30    33    1
    42    25    26    1
    43    35    34    1
    44    29    26    1
    45    33    34   ar
    46    33    42   ar
    47    26    28    1
    48    26    27    1
    49    34    36   ar
    50    43    42    1
    51    42    40   ar
    52    36    37    1
    53    36    38   ar
    54    40    38   ar
    55    40    41    1
    56    38    39    1
