@<TRIPOS>MOLECULE
Mol_1e
 44 46 0 0 0
SMALL
GASTEIGER
Energy = 0

@<TRIPOS>ATOM
      1 C           4.5703   -1.8826   -6.6073 C.3     1  LIG11      -0.0904
      2 H           4.6446   -2.2203   -7.6566 H       1  LIG11       0.0059
      3 H           5.5889   -1.9165   -6.1829 H       1  LIG11       0.0059
      4 C           3.6785   -2.8972   -5.8381 C.3     1  LIG11      -0.0605
      5 H           4.1301   -3.9035   -5.8692 H       1  LIG11       0.0253
      6 H           2.6948   -2.9537   -6.3297 H       1  LIG11       0.0253
      7 C           3.5310   -2.4456   -4.3625 C.3     1  LIG11      -0.0064
      8 H           4.5474   -2.4185   -3.9345 H       1  LIG11       0.0355
      9 C           2.9499   -1.0100   -4.3111 C.3     1  LIG11       0.0489
     10 H           1.9423   -1.0009   -4.7580 H       1  LIG11       0.0401
     11 C           3.8637   -0.0471   -5.1194 C.3     1  LIG11      -0.0773
     12 H           4.8475    0.0085   -4.6220 H       1  LIG11       0.0067
     13 H           3.4175    0.9622   -5.0738 H       1  LIG11       0.0067
     14 N           4.0302   -0.4941   -6.5328 N.4     1  LIG11       0.3784
     15 H           3.0474   -0.4970   -7.0033 H       1  LIG11      -0.0822
     16 C           4.8790    0.4588   -7.3041 C.3     1  LIG11      -0.1032
     17 H           5.9108    0.4839   -6.9158 H       1  LIG11       0.0023
     18 H           4.4826    1.4866   -7.2492 H       1  LIG11       0.0023
     19 H           4.9282    0.1752   -8.3682 H       1  LIG11       0.0023
     20 C           2.8268   -0.5766   -2.8723 C.2     1  LIG11       0.3142
     21 O           3.8036   -0.4873   -2.1459 O.2     1  LIG11      -0.2502
     22 O           1.5821   -0.3023   -2.4733 O.3     1  LIG11      -0.4257
     23 C           0.7235    0.1798   -3.4614 C.ar    1  LIG11       0.1316
     24 C          -0.4457   -0.5167   -3.7842 C.ar    1  LIG11      -0.0192
     25 H          -0.6883   -1.4380   -3.2650 H       1  LIG11       0.0654
     26 C          -1.3023   -0.0264   -4.7743 C.ar    1  LIG11      -0.0583
     27 H          -2.2085   -0.5693   -5.0257 H       1  LIG11       0.0619
     28 C          -0.9915    1.1628   -5.4402 C.ar    1  LIG11      -0.0615
     29 H          -1.6564    1.5438   -6.2097 H       1  LIG11       0.0618
     30 C           0.1751    1.8620   -5.1157 C.ar    1  LIG11      -0.0583
     31 H           0.4161    2.7861   -5.6324 H       1  LIG11       0.0619
     32 C           1.0309    1.3700   -4.1256 C.ar    1  LIG11      -0.0192
     33 H           1.9365    1.9085   -3.8689 H       1  LIG11       0.0654
     34 C           2.6666   -3.4087   -3.5251 C.ar    1  LIG11      -0.0435
     35 C           1.2923   -3.1760   -3.3795 C.ar    1  LIG11      -0.0569
     36 H           0.8247   -2.3138   -3.8446 H       1  LIG11       0.0621
     37 C           0.4949   -4.0512   -2.6368 C.ar    1  LIG11      -0.0431
     38 H          -0.5693   -3.8642   -2.5323 H       1  LIG11       0.0632
     39 C           1.0652   -5.1703   -2.0268 C.ar    1  LIG11       0.0410
     40 C           2.4345   -5.4083   -2.1616 C.ar    1  LIG11      -0.0431
     41 H           2.8784   -6.2768   -1.6853 H       1  LIG11       0.0632
     42 C           3.2296   -4.5328   -2.9070 C.ar    1  LIG11      -0.0569
     43 H           4.2885   -4.7460   -2.9979 H       1  LIG11       0.0621
     44 CL          0.0676   -6.2702   -1.0976 Cl      1  LIG11      -0.0835
@<TRIPOS>BOND
     1    19    16    1
     2     2     1    1
     3    16    18    1
     4    16    17    1
     5    16    14    1
     6    15    14    1
     7     1    14    1
     8     1     3    1
     9     1     4    1
    10    14    11    1
    11     6     4    1
    12    29    28    1
    13     5     4    1
    14     4     7    1
    15    31    30    1
    16    28    30   ar
    17    28    26   ar
    18    11    13    1
    19    11    12    1
    20    11     9    1
    21    30    32   ar
    22    27    26    1
    23    26    24   ar
    24    10     9    1
    25     7     9    1
    26     7     8    1
    27     7    34    1
    28     9    20    1
    29    32    33    1
    30    32    23   ar
    31    36    35    1
    32    24    23   ar
    33    24    25    1
    34    34    35   ar
    35    34    42   ar
    36    23    22    1
    37    35    37   ar
    38    43    42    1
    39    42    40   ar
    40    20    22    1
    41    20    21    2
    42    37    38    1
    43    37    39   ar
    44    40    39   ar
    45    40    41    1
    46    39    44    1
