@<TRIPOS>MOLECULE
Mol_1x
 49 51 0 0 0
SMALL
GASTEIGER
Energy = 0

@<TRIPOS>ATOM
      1 C           4.5095   -1.0386   -5.8593 C.3     1  LIG11      -0.0904
      2 H           4.8723   -1.2122   -6.9117 H       1  LIG11       0.0059
      3 H           5.3205   -0.5052   -5.2853 H       1  LIG11       0.0059
      4 C           4.1781   -2.3607   -5.1836 C.3     1  LIG11      -0.0609
      5 H           5.1234   -2.9668   -5.1383 H       1  LIG11       0.0253
      6 H           3.4397   -2.9425   -5.7962 H       1  LIG11       0.0253
      7 C           3.6411   -2.1490   -3.7718 C.3     1  LIG11      -0.0133
      8 H           4.4446   -1.6596   -3.1471 H       1  LIG11       0.0351
      9 C           2.4406   -1.1992   -3.8028 C.3     1  LIG11      -0.0147
     10 H           1.5887   -1.7073   -4.3389 H       1  LIG11       0.0321
     11 C           2.7963    0.1022   -4.5220 C.3     1  LIG11      -0.0844
     12 H           3.5929    0.6520   -3.9413 H       1  LIG11       0.0063
     13 H           1.8886    0.7713   -4.5844 H       1  LIG11       0.0063
     14 N           3.3181   -0.1282   -5.9091 N.4     1  LIG11       0.3781
     15 H           2.5827   -0.5997   -6.4515 H       1  LIG11      -0.0822
     16 C           3.6496    1.1571   -6.5696 C.3     1  LIG11      -0.1032
     17 H           2.7264    1.7948   -6.6241 H       1  LIG11       0.0023
     18 H           4.0340    0.9550   -7.6048 H       1  LIG11       0.0023
     19 H           4.4353    1.6950   -5.9745 H       1  LIG11       0.0023
     20 C           1.9309   -0.8719   -2.3974 C.3     1  LIG11       0.0957
     21 H           2.8096   -0.8060   -1.6948 H       1  LIG11       0.0700
     22 H           1.2073   -1.6599   -2.0591 H       1  LIG11       0.0700
     23 O           1.3449    0.4267   -2.3150 O.3     1  LIG11      -0.4499
     24 C           1.4409    1.0757   -1.0835 C.2     1  LIG11       0.4046
     25 N           0.3847    1.9145   -0.8674 N.am    1  LIG11      -0.2512
     26 H          -0.4910    1.6697   -1.2794 H       1  LIG11       0.1582
     27 C           0.4299    3.1009   -0.1012 C.ar    1  LIG11       0.0364
     28 C           1.6533    3.8097   -0.0491 C.ar    1  LIG11      -0.0404
     29 H           2.5393    3.4480   -0.5931 H       1  LIG11       0.0636
     30 C           1.7450    4.9755    0.7031 C.ar    1  LIG11      -0.0600
     31 H           2.7013    5.5204    0.7409 H       1  LIG11       0.0618
     32 C           0.6413    5.4556    1.4078 C.ar    1  LIG11      -0.0616
     33 H           0.7243    6.3784    2.0014 H       1  LIG11       0.0618
     34 C          -0.5634    4.7585    1.3591 C.ar    1  LIG11      -0.0600
     35 H          -1.4363    5.1296    1.9186 H       1  LIG11       0.0618
     36 C          -0.6811    3.5870    0.6141 C.ar    1  LIG11      -0.0404
     37 H          -1.6427    3.0490    0.5978 H       1  LIG11       0.0636
     38 O           2.4149    0.7751   -0.3676 O.2     1  LIG11      -0.2261
     39 C           3.2884   -3.4688   -3.1613 C.ar    1  LIG11      -0.0439
     40 C           4.2538   -4.4684   -2.9886 C.ar    1  LIG11      -0.0569
     41 H           5.2925   -4.2994   -3.3101 H       1  LIG11       0.0621
     42 C           3.9162   -5.6869   -2.4062 C.ar    1  LIG11      -0.0431
     43 H           4.6825   -6.4671   -2.2734 H       1  LIG11       0.0632
     44 C           2.5990   -5.9149   -1.9895 C.ar    1  LIG11       0.0410
     45 C           1.6267   -4.9226   -2.1564 C.ar    1  LIG11      -0.0431
     46 H           0.5898   -5.0991   -1.8278 H       1  LIG11       0.0632
     47 C           1.9744   -3.7066   -2.7406 C.ar    1  LIG11      -0.0569
     48 H           1.2030   -2.9314   -2.8717 H       1  LIG11       0.0621
     49 CL          2.1833   -7.3953   -1.2816 Cl      1  LIG11      -0.0835
@<TRIPOS>BOND
     1    18    16    1
     2     2     1    1
     3    17    16    1
     4    16    19    1
     5    16    14    1
     6    15    14    1
     7    14     1    1
     8    14    11    1
     9     1     3    1
    10     1     4    1
    11     6     4    1
    12     4     5    1
    13     4     7    1
    14    13    11    1
    15    11    12    1
    16    11     9    1
    17    10     9    1
    18     9     7    1
    19     9    20    1
    20     7    39    1
    21     7     8    1
    22    41    40    1
    23    39    40   ar
    24    39    47   ar
    25    40    42   ar
    26    48    47    1
    27    47    45   ar
    28    42    43    1
    29    42    44   ar
    30    20    23    1
    31    20    22    1
    32    20    21    1
    33    23    24    1
    34    45    44   ar
    35    45    46    1
    36    44    49    1
    37    26    25    1
    38    24    25   am
    39    24    38    2
    40    25    27    1
    41    29    28    1
    42    27    28   ar
    43    27    36   ar
    44    28    30   ar
    45    37    36    1
    46    36    34   ar
    47    30    31    1
    48    30    32   ar
    49    34    32   ar
    50    34    35    1
    51    32    33    1
