@<TRIPOS>MOLECULE
04x
 65 68 0 0 0
SMALL
USER_CHARGES

@<TRIPOS>ATOM
      1 C1          3.9005   -6.3666   15.3061 C.ar    4  NAPHTHALENE4   -0.2347
      2 C2          4.0651   -5.1495   15.9725 C.ar    4  NAPHTHALENE4   -0.1380
      3 C3          5.3335   -4.5681   16.0570 C.ar    4  NAPHTHALENE4   -0.0486
      4 C4          6.4341   -5.2034   15.4742 C.ar    4  NAPHTHALENE4   -0.3300
      5 ****        6.7749   -9.3075   10.3935 H       2  APM22       0.1224
      6 ****        5.2368  -10.4885    8.6668 H       2  APM22       0.1808
      7 ****        6.1548   -9.1080    8.0564 H       2  APM22       0.1429
      8 ****        2.7967  -10.3795    8.5187 H       2  APM22       0.2099
      9 ****        5.1069   -6.8559    7.7470 H       2  APM22       0.1771
     10 ****        3.0733   -5.6776    6.9965 H       2  APM22       0.1991
     11 ****        0.8801   -6.7569    7.1677 H       2  APM22       0.1656
     12 ****        3.9868   -9.9510   11.0087 H       2  APM22       0.3876
     13 ****       -1.5840   -9.3722    7.0464 H       2  APM22       0.5723
     14 ****       -0.5356   -8.0688    6.4807 H       2  APM22       0.5528
     15 ****        0.8814  -10.8498    9.0928 H       2  APM22       0.5381
     16 ****       -0.7681  -10.9712    8.4730 H       2  APM22       0.5739
     17 ****        7.5534   -6.2231    8.4387 H       3  PIP33       0.1171
     18 ****        7.8266   -7.8151    9.1446 H       3  PIP33       0.1021
     19 ****        9.6715   -6.3131    9.7804 H       3  PIP33       0.0792
     20 ****        8.7319   -6.7887   11.2273 H       3  PIP33       0.0509
     21 ****        8.4267   -4.1439    9.6644 H       3  PIP33       0.0596
     22 C23         9.5482   -4.1330   11.5167 C.3     3  PIP33      -0.4720
     23 ****        6.8251   -3.4905   11.4750 H       3  PIP33       0.0672
     24 ****        7.0386   -5.0830   12.2569 H       3  PIP33       0.0648
     25 ****        4.9591   -5.0452   10.8996 H       3  PIP33       0.1316
     26 ****        5.8710   -4.6055    9.4447 H       3  PIP33       0.1025
     27 S           5.7060  -10.4191   12.6300 S.O2    1  TOS11       2.2659
     28 O1          6.9965  -11.0007   12.3112 O.2     1  TOS11      -0.9287
     29 O2          4.7394  -11.2178   13.3594 O.2     1  TOS11      -0.9548
     30 C5          7.3704   -7.0625   14.2229 C.ar    4  NAPHTHALENE4   -0.2790
     31 C6          7.2033   -8.2785   13.5552 C.ar    4  NAPHTHALENE4   -0.0978
     32 C7          5.9417   -8.8752   13.4779 C.ar    4  NAPHTHALENE4   -0.4585
     33 C8          4.8442   -8.2282   14.0518 C.ar    4  NAPHTHALENE4   -0.1895
     34 C9          5.0019   -7.0091   14.7224 C.ar    4  NAPHTHALENE4    0.1465
     35 C10         6.2706   -6.4218   14.8069 C.ar    4  NAPHTHALENE4    0.2327
     36 H1          2.9094   -6.8066   15.2486 H       4  NAPHTHALENE4    0.1889
     37 C           5.4919   -7.5642   10.5032 C.2     2  APM22       0.6895
     38 CA          5.7260   -9.0331   10.2115 C.3     2  APM22       0.2732
     39 CB          5.3456   -9.3954    8.7446 C.3     2  APM22      -0.4792
     40 CG          4.0710   -8.6853    8.2478 C.ar    2  APM22       0.1977
     41 CD1         2.8323   -9.3377    8.2247 C.ar    2  APM22      -0.1580
     42 CD2         4.1523   -7.3671    7.7874 C.ar    2  APM22      -0.0547
     43 CE1         1.6633   -8.6745    7.8170 C.ar    2  APM22      -0.3486
     44 CE2         3.0023   -6.6954    7.3683 C.ar    2  APM22      -0.1654
     45 CZ          1.7618   -7.3329    7.4269 C.ar    2  APM22      -0.0639
     46 CF          0.3191   -9.3840    7.7896 C.3     2  APM22       1.0943
     47 O           4.4775   -7.3352   11.1426 O.2     2  APM22      -0.6484
     48 N           4.9665   -9.8304   11.1662 N.3     2  APM22      -0.9821
     49 NG1        -0.6631   -8.9084    7.0619 N.3     2  APM22      -1.0405
     50 NG2         0.1347  -10.4735    8.4935 N.3     2  APM22      -0.9950
     51 N1          6.3095   -6.5476   10.0962 N.am    3  PIP33      -0.4821
     52 C2          7.5745   -6.7772    9.3908 C.3     3  PIP33      -0.0935
     53 C3          8.6990   -6.2074   10.2907 C.3     3  PIP33      -0.0994
     54 C4          8.4282   -4.7117   10.6116 C.3     3  PIP33       0.1390
     55 C5          7.0389   -4.5567   11.2892 C.3     3  PIP33      -0.0711
     56 C6          5.9309   -5.1630   10.3934 C.3     3  PIP33      -0.1093
     57 ****       10.5260   -4.2305   11.0195 H       3  PIP33       0.1255
     58 ****        9.5859   -4.6684   12.4783 H       3  PIP33       0.1187
     59 ****        9.3619   -3.0658   11.7137 H       3  PIP33       0.1204
     60 H2          3.2116   -4.6559   16.4272 H       4  NAPHTHALENE4    0.1683
     61 H3          5.4650   -3.6225   16.5764 H       4  NAPHTHALENE4    0.1638
     62 H4          7.4132   -4.7406   15.5456 H       4  NAPHTHALENE4    0.2002
     63 H5          8.3605   -6.6192   14.2785 H       4  NAPHTHALENE4    0.2080
     64 H6          8.0618   -8.7553   13.0979 H       4  NAPHTHALENE4    0.1915
     65 H8          3.8623   -8.6840   13.9717 H       4  NAPHTHALENE4    0.2231
@<TRIPOS>BOND
     1    27    32    1
     2    30    31   ar
     3    30    35   ar
     4    30    63    1
     5    35     4   ar
     6    35    34   ar
     7    34     1   ar
     8    38     5    1
     9    39     6    1
    10    39     7    1
    11    41     8    1
    12    42     9    1
    13    44    10    1
    14    45    11    1
    15    48    12    1
    16    49    13    1
    17    49    14    1
    18    50    15    1
    19    50    16    1
    20    52    17    1
    21    52    18    1
    22    53    19    1
    23    53    20    1
    24    54    21    1
    25    54    22    1
    26    55    23    1
    27    55    24    1
    28    56    25    1
    29    56    26    1
    30    34    33   ar
    31    27    29    2
    32    27    28    2
    33    33    32   ar
    34    33    65    1
    35    32    31   ar
    36    31    64    1
    37     1     2   ar
    38     1    36    1
    39    37    47    2
    40    38    37    1
    41    38    48    1
    42    39    38    1
    43    40    39    1
    44    40    42   ar
    45    41    40   ar
    46    43    41   ar
    47    46    43    1
    48    43    45   ar
    49    45    44   ar
    50    44    42   ar
    51    46    50    1
    52    46    49    1
    53    51    56    1
    54    52    51    1
    55    53    52    1
    56    54    53    1
    57    54    55    1
    58    55    56    1
    59    37    51   am
    60    48    27    1
    61    22    57    1
    62    22    58    1
    63    22    59    1
    64     2     3   ar
    65     2    60    1
    66     3     4   ar
    67     3    61    1
    68     4    62    1
