@<TRIPOS>MOLECULE
13x
 66 69 0 0 0
SMALL
USER_CHARGES

@<TRIPOS>ATOM
      1 C1          3.8996   -6.3639   15.2965 C.ar    4  NAPHTHALENE4   -0.2550
      2 C2          4.0683   -5.1490   15.9655 C.ar    4  NAPHTHALENE4   -0.1152
      3 C3          5.3367   -4.5694   16.0475 C.ar    4  NAPHTHALENE4   -0.0680
      4 C4          6.4337   -5.2055   15.4606 C.ar    4  NAPHTHALENE4   -0.2907
      5 ****        6.7661   -9.3108   10.4027 H       2  APM22       0.1212
      6 ****        5.2534  -10.4942    8.6540 H       2  APM22       0.1678
      7 ****        6.1691   -9.1120    8.0440 H       2  APM22       0.1119
      8 ****        2.8028  -10.3908    8.5094 H       2  APM22       0.2050
      9 ****        5.1138   -6.8587    7.7446 H       2  APM22       0.1800
     10 ****        3.0681   -5.6630    7.0569 H       2  APM22       0.2003
     11 ****        0.8722   -6.7607    7.2193 H       2  APM22       0.1639
     12 ****        3.9599   -9.9266   10.9851 H       2  APM22       0.3979
     13 ****       -1.5729   -9.3641    7.0665 H       2  APM22       0.5720
     14 ****       -0.5200   -8.0544    6.5172 H       2  APM22       0.5556
     15 ****        0.9080  -10.8688    9.0837 H       2  APM22       0.5416
     16 ****       -0.7481  -10.9869    8.4748 H       2  APM22       0.5747
     17 ****        7.6923   -6.1895    8.5268 H       3  PIP33       0.0804
     18 ****        7.8290   -7.8345    9.1475 H       3  PIP33       0.0654
     19 ****        9.6666   -6.5915   10.2236 H       3  PIP33       0.1055
     20 ****        8.4190   -6.8637   11.4244 H       3  PIP33       0.0797
     21 C           9.2370   -3.9301   10.3262 C.2     5  CO5         0.8949
     22 O           9.1301   -2.7872   10.7447 O.2     5  CO5        -0.6255
     23 ****        6.9007   -3.4461   11.3504 H       3  PIP33       0.1212
     24 ****        7.0052   -4.9401   12.3159 H       3  PIP33       0.0393
     25 ****        4.9888   -5.0360   10.9048 H       3  PIP33       0.0798
     26 ****        5.9044   -4.6112    9.4506 H       3  PIP33       0.0533
     27 S           5.6732  -10.4188   12.6263 S.O2    1  TOS11       2.2496
     28 O1          6.9595  -11.0127   12.3145 O.2     1  TOS11      -0.9211
     29 O2          4.6861  -11.1926   13.3532 O.2     1  TOS11      -0.9518
     30 C5          7.3639   -7.0719   14.2046 C.ar    4  NAPHTHALENE4   -0.2506
     31 C6          7.1931   -8.2924   13.5449 C.ar    4  NAPHTHALENE4   -0.1291
     32 C7          5.9259   -8.8762   13.4702 C.ar    4  NAPHTHALENE4   -0.4274
     33 C8          4.8308   -8.2243   14.0409 C.ar    4  NAPHTHALENE4   -0.2126
     34 C9          4.9971   -7.0052   14.7091 C.ar    4  NAPHTHALENE4    0.1981
     35 C10         6.2692   -6.4255   14.7915 C.ar    4  NAPHTHALENE4    0.1699
     36 H1          2.9086   -6.8036   15.2393 H       4  NAPHTHALENE4    0.1904
     37 C           5.4854   -7.5587   10.4814 C.2     2  APM22       0.4605
     38 CA          5.7238   -9.0281   10.1969 C.3     2  APM22       0.2981
     39 CB          5.3588   -9.4005    8.7299 C.3     2  APM22      -0.4179
     40 CG          4.0818   -8.6915    8.2444 C.ar    2  APM22       0.1819
     41 CD1         2.8430   -9.3459    8.2254 C.ar    2  APM22      -0.1470
     42 CD2         4.1575   -7.3684    7.7953 C.ar    2  APM22      -0.0481
     43 CE1         1.6746   -8.6778    7.8335 C.ar    2  APM22      -0.3668
     44 CE2         3.0027   -6.6896    7.4043 C.ar    2  APM22      -0.1720
     45 CZ          1.7623   -7.3310    7.4619 C.ar    2  APM22      -0.0585
     46 CF          0.3307   -9.3898    7.8044 C.3     2  APM22       1.1247
     47 O           4.4579   -7.3268   11.0992 O.2     2  APM22      -0.5976
     48 N           4.9418   -9.8150   11.1427 N.3     2  APM22      -0.9714
     49 NG1        -0.6510   -8.9020    7.0870 N.3     2  APM22      -1.0489
     50 NG2         0.1544  -10.4879    8.4951 N.3     2  APM22      -1.0063
     51 N1          6.3181   -6.5483   10.0920 N.am    3  PIP33      -0.4280
     52 C2          7.6059   -6.8024    9.4380 C.3     3  PIP33       0.0804
     53 C3          8.6343   -6.3282   10.4866 C.3     3  PIP33       0.0633
     54 N4          8.3657   -4.9079   10.7119 N.am    3  PIP33      -0.7157
     55 C5          7.0742   -4.5331   11.2956 C.3     3  PIP33       0.1125
     56 C6          5.9630   -5.1590   10.4054 C.3     3  PIP33       0.0990
     57 ****       10.3803   -4.1313    9.3543 C.3     5  CO5        -0.4374
     58 ****       10.3843   -5.0751    8.7930 H       5  CO5         0.1324
     59 ****       11.3438   -4.0082    9.8709 H       5  CO5         0.1277
     60 H2          3.2148   -4.6562   16.4212 H       4  NAPHTHALENE4    0.1646
     61 H3          5.4686   -3.6254   16.5676 H       4  NAPHTHALENE4    0.1670
     62 H4          7.4132   -4.7426   15.5307 H       4  NAPHTHALENE4    0.1930
     63 H5          8.3551   -6.6315   14.2564 H       4  NAPHTHALENE4    0.2061
     64 H6          8.0467   -8.7853   13.0923 H       4  NAPHTHALENE4    0.1925
     65 H8          3.8488   -8.6776   13.9592 H       4  NAPHTHALENE4    0.2231
     66 ****       10.2897   -3.3342    8.6003 H       5  CO5         0.1385
@<TRIPOS>BOND
     1    27    32    1
     2    30    31   ar
     3    30    35   ar
     4    30    63    1
     5    35     4   ar
     6    35    34   ar
     7    34     1   ar
     8    38     5    1
     9    39     6    1
    10    39     7    1
    11    41     8    1
    12    42     9    1
    13    44    10    1
    14    45    11    1
    15    48    12    1
    16    49    13    1
    17    49    14    1
    18    50    15    1
    19    50    16    1
    20    52    17    1
    21    52    18    1
    22    53    19    1
    23    53    20    1
    24    21    22    2
    25    54    21   am
    26    55    23    1
    27    55    24    1
    28    56    25    1
    29    56    26    1
    30    34    33   ar
    31    27    29    2
    32    27    28    2
    33    33    32   ar
    34    33    65    1
    35    32    31   ar
    36    31    64    1
    37     1     2   ar
    38     1    36    1
    39    37    47    2
    40    38    37    1
    41    38    48    1
    42    39    38    1
    43    40    39    1
    44    40    42   ar
    45    41    40   ar
    46    43    41   ar
    47    46    43    1
    48    43    45   ar
    49    45    44   ar
    50    44    42   ar
    51    46    50    1
    52    46    49    1
    53    51    56    1
    54    52    51    1
    55    53    52    1
    56    54    53    1
    57    54    55    1
    58    55    56    1
    59    37    51   am
    60    48    27    1
    61    21    57    1
    62    57    58    1
    63    57    59    1
    64     2     3   ar
    65     2    60    1
    66     3     4   ar
    67     3    61    1
    68     4    62    1
    69    57    66    1
