@<TRIPOS>MOLECULE
25x
 86 88 0 0 0
SMALL
USER_CHARGES

@<TRIPOS>ATOM
      1 C1          3.8806   -7.9814   13.7068 C.3     1  TOS11       0.3361
      2 ****        5.2138   -5.8399   14.5238 H       1  TOS11       0.2239
      3 C3          7.7216   -4.9586   14.9674 C.3     1  TOS11       0.1562
      4 C4          8.9171   -9.5960   13.3522 C.3     1  TOS11       0.3366
      5 ****        9.2209   -7.0197   13.8521 H       1  TOS11       0.2122
      6 ****        3.5721   -8.8728   13.1480 H       1  TOS11      -0.0148
      7 C7          8.6495   -4.0682   14.1183 C.3     1  TOS11      -0.2240
      8 ****        6.8073   -9.3094   10.2595 H       2  APM22       0.0761
      9 ****        5.2529  -10.5642    8.5576 H       2  APM22       0.1875
     10 ****        6.1823   -9.2008    7.9003 H       2  APM22       0.1203
     11 ****        2.7919  -10.4203    8.4506 H       2  APM22       0.2198
     12 ****        5.1273   -6.9522    7.5052 H       2  APM22       0.1724
     13 ****        3.0710   -5.6978    6.9813 H       2  APM22       0.2003
     14 ****        0.8676   -6.7654    7.2179 H       2  APM22       0.1635
     15 ****        3.9843   -9.8538   10.8977 H       2  APM22       0.3861
     16 ****       -1.6039   -9.3462    7.0872 H       2  APM22       0.5757
     17 ****       -0.5499   -8.0432    6.5254 H       2  APM22       0.5588
     18 ****        0.8997  -10.8914    9.0424 H       2  APM22       0.5618
     19 ****       -0.7676  -10.9883    8.4626 H       2  APM22       0.5801
     20 ****        7.6674   -6.2742    8.2475 H       3  PIP33       0.1090
     21 ****        7.9295   -7.8308    9.0439 H       3  PIP33       0.0954
     22 ****        9.7408   -6.2867    9.6628 H       3  PIP33       0.0925
     23 ****        8.7296   -6.7044   11.0801 H       3  PIP33       0.0697
     24 ****        8.3970   -4.0873    9.4392 H       3  PIP33       0.0706
     25 C25         9.7088   -4.0940   11.1310 C.3     3  PIP33      -0.4274
     26 ****        6.7962   -3.5062   11.2917 H       3  PIP33       0.0614
     27 ****        7.0209   -5.1557   11.9774 H       3  PIP33       0.0759
     28 ****        5.0026   -5.0879   10.6985 H       3  PIP33       0.1477
     29 ****        5.8718   -4.5988    9.2264 H       3  PIP33       0.1141
     30 S           5.7347  -10.3248   12.5354 S.O2    1  TOS11       2.3894
     31 O1          6.7696  -11.2093   12.0519 O.2     1  TOS11      -0.9652
     32 O2          4.7329  -10.9004   13.4139 O.2     1  TOS11      -0.9586
     33 C1          6.3736   -8.7961   13.2883 C.ar    1  TOS11      -0.8827
     34 C2          5.4381   -7.8151   13.6992 C.ar    1  TOS11       0.4091
     35 C3          5.9129   -6.5940   14.1966 C.ar    1  TOS11      -0.5365
     36 C4          7.2721   -6.3008   14.3211 C.ar    1  TOS11       0.2700
     37 C5          8.1706   -7.2740   13.8767 C.ar    1  TOS11      -0.3044
     38 C6          7.7565   -8.5580   13.4878 C.ar    1  TOS11       0.1463
     39 C39         8.4781   -5.2354   16.2841 C.3     1  TOS11      -0.3672
     40 C           5.5114   -7.5636   10.1194 C.2     2  APM22       0.6276
     41 CA          5.7652   -9.0443   10.0322 C.3     2  APM22       0.4737
     42 CB          5.3685   -9.4704    8.5902 C.3     2  APM22      -0.4987
     43 CG          4.0870   -8.7534    8.1080 C.ar    2  APM22       0.2426
     44 CD1         2.8393   -9.3821    8.1448 C.ar    2  APM22      -0.1835
     45 CD2         4.1657   -7.4384    7.6266 C.ar    2  APM22      -0.0696
     46 CE1         1.6640   -8.7012    7.7854 C.ar    2  APM22      -0.3809
     47 CE2         3.0041   -6.7317    7.3097 C.ar    2  APM22      -0.1640
     48 CZ          1.7592   -7.3502    7.4181 C.ar    2  APM22      -0.0700
     49 CF          0.3169   -9.3961    7.7838 C.3     2  APM22       1.1700
     50 O           4.3581   -7.3286   10.4109 O.2     2  APM22      -0.6375
     51 N           4.9630   -9.7161   11.0554 N.3     2  APM22      -1.1022
     52 NG1        -0.6778   -8.8938    7.0912 N.3     2  APM22      -1.0662
     53 NG2         0.1396  -10.4991    8.4705 N.3     2  APM22      -1.0501
     54 N1          6.3745   -6.5462    9.8618 N.am    3  PIP33      -0.4510
     55 C2          7.6650   -6.7826    9.2233 C.3     3  PIP33      -0.0564
     56 C3          8.7474   -6.1614   10.1208 C.3     3  PIP33      -0.1390
     57 C4          8.4648   -4.6591   10.3792 C.3     3  PIP33       0.0764
     58 C5          7.0636   -4.5520   11.0606 C.3     3  PIP33      -0.0038
     59 C6          5.9646   -5.1698   10.1623 C.3     3  PIP33      -0.1925
     60 ****       10.5344   -3.8892   10.4366 H       3  PIP33       0.1163
     61 ****       10.1100   -4.8595   11.8049 H       3  PIP33       0.1068
     62 ****        9.5163   -3.1525   11.6631 H       3  PIP33       0.1118
     63 ****        6.8431   -4.3290   15.1877 H       1  TOS11       0.0465
     64 C64         2.9992   -6.8267   13.1171 C.3     1  TOS11      -0.4159
     65 C65         3.4114   -8.1700   15.1777 C.3     1  TOS11      -0.4011
     66 ****        8.5599  -10.6177   13.2017 H       1  TOS11       0.0467
     67 C67         9.7249   -9.7516   14.6773 C.3     1  TOS11      -0.4158
     68 C68         9.8800   -9.2883   12.1656 C.3     1  TOS11      -0.3231
     69 ****        9.5096   -4.6801   13.8436 H       1  TOS11       0.0724
     70 ****        9.0396   -3.1778   14.6310 H       1  TOS11       0.0868
     71 ****        8.0826   -3.6960   13.2680 H       1  TOS11      -0.0031
     72 ****        7.8148   -5.7696   16.9759 H       1  TOS11       0.0869
     73 ****        8.7893   -4.2848   16.7464 H       1  TOS11       0.1128
     74 ****        9.3773   -5.8419   16.0938 H       1  TOS11       0.0911
     75 ****        3.1864   -5.8469   13.5690 H       1  TOS11       0.1153
     76 ****        1.9334   -7.0570   13.2651 H       1  TOS11       0.0905
     77 ****        3.0866   -6.6853   12.0475 H       1  TOS11       0.0958
     78 ****        3.9253   -9.0216   15.6452 H       1  TOS11       0.1039
     79 ****        2.3263   -8.3578   15.2265 H       1  TOS11       0.1049
     80 ****        3.6205   -7.2650   15.7688 H       1  TOS11       0.1018
     81 ****       10.1674   -8.8070   15.0210 H       1  TOS11       0.1013
     82 ****       10.5506  -10.4719   14.5488 H       1  TOS11       0.1190
     83 ****        9.0682  -10.1347   15.4744 H       1  TOS11       0.0894
     84 ****        9.3325   -9.3294   11.2123 H       1  TOS11       0.0446
     85 ****       10.6928  -10.0321   12.1194 H       1  TOS11       0.1049
     86 ****       10.3518   -8.2999   12.2561 H       1  TOS11       0.0691
@<TRIPOS>BOND
     1    34     1    1
     2    35     2    1
     3    36     3    1
     4    38     4    1
     5    37     5    1
     6     1     6    1
     7     3     7    1
     8    41     8    1
     9    42     9    1
    10    42    10    1
    11    44    11    1
    12    45    12    1
    13    47    13    1
    14    48    14    1
    15    51    15    1
    16    52    16    1
    17    52    17    1
    18    53    18    1
    19    53    19    1
    20    55    20    1
    21    55    21    1
    22    56    22    1
    23    56    23    1
    24    57    24    1
    25    57    25    1
    26    58    26    1
    27    58    27    1
    28    59    28    1
    29    59    29    1
    30    33    30    1
    31    30    32    2
    32    30    31    2
    33    33    38   ar
    34    34    33   ar
    35    35    34   ar
    36    36    35   ar
    37     3    39    1
    38    36    37   ar
    39    37    38   ar
    40    40    50    2
    41    41    40    1
    42    41    51    1
    43    42    41    1
    44    43    42    1
    45    43    45   ar
    46    44    43   ar
    47    46    44   ar
    48    49    46    1
    49    46    48   ar
    50    48    47   ar
    51    47    45   ar
    52    49    53    1
    53    49    52    1
    54    54    59    1
    55    55    54    1
    56    56    55    1
    57    57    56    1
    58    57    58    1
    59    58    59    1
    60    40    54   am
    61    51    30    1
    62    25    60    1
    63    25    61    1
    64    25    62    1
    65     3    63    1
    66     1    64    1
    67     1    65    1
    68     4    66    1
    69     4    67    1
    70     4    68    1
    71     7    69    1
    72     7    70    1
    73     7    71    1
    74    39    72    1
    75    39    73    1
    76    39    74    1
    77    64    75    1
    78    64    76    1
    79    64    77    1
    80    65    78    1
    81    65    79    1
    82    65    80    1
    83    67    81    1
    84    67    82    1
    85    67    83    1
    86    68    84    1
    87    68    85    1
    88    68    86    1
