@<TRIPOS>MOLECULE
36x
 72 76 0 0 0
SMALL
USER_CHARGES

@<TRIPOS>ATOM
      1 C1          4.0884   -6.0048   14.9500 C.ar    4  NAPHTHALENE4   -0.2520
      2 C2          4.3848   -4.7648   15.5265 C.ar    4  NAPHTHALENE4   -0.1297
      3 C3          5.7004   -4.2964   15.5292 C.ar    4  NAPHTHALENE4   -0.0438
      4 C4          6.7138   -5.0563   14.9413 C.ar    4  NAPHTHALENE4   -0.3163
      5 H5          6.7787   -9.4179   10.3580 H       2  APM22       0.1241
      6 H6          5.4430  -10.4011    8.4173 H       2  APM22       0.1837
      7 H7          6.3000   -8.9087    7.9852 H       2  APM22       0.1451
      8 H8          2.9598  -10.4162    8.4403 H       2  APM22       0.2037
      9 H9          5.0282   -6.8269    7.6482 H       2  APM22       0.2088
     10 H10         2.9771   -5.6289    7.0891 H       2  APM22       0.2047
     11 H11         0.8231   -6.8630    7.2333 H       2  APM22       0.1612
     12 H12         3.9269   -9.9685   10.7091 H       2  APM22       0.4062
     13 H13        -1.4948   -9.5501    7.4304 H       2  APM22       0.5722
     14 H14        -0.5456   -8.2013    6.7767 H       2  APM22       0.5554
     15 H15         1.2713  -10.8660    9.2479 H       2  APM22       0.5405
     16 H16        -0.4375  -11.1050    8.8372 H       2  APM22       0.5701
     17 C1          6.0907   -5.2502   10.5708 C.3     3  TETRAHYDROISOQUINOLINE3   -0.1724
     18 N1          6.4855   -6.6098   10.1865 N.am    3  TETRAHYDROISOQUINOLINE3   -0.1251
     19 C2          7.7484   -6.8400    9.4658 C.3     3  TETRAHYDROISOQUINOLINE3   -0.4347
     20 C3          8.8664   -6.0538   10.1799 C.3     3  TETRAHYDROISOQUINOLINE3   -0.0011
     21 C4          9.4896   -3.5888    9.9834 C.ar    3  TETRAHYDROISOQUINOLINE3   -0.1826
     22 C5          9.1313   -2.2415    9.8754 C.ar    3  TETRAHYDROISOQUINOLINE3   -0.1237
     23 C6          7.7859   -1.8718    9.9272 C.ar    3  TETRAHYDROISOQUINOLINE3   -0.1261
     24 C7          6.8021   -2.8446   10.1325 C.ar    3  TETRAHYDROISOQUINOLINE3   -0.2235
     25 C8          7.1608   -4.1880   10.2808 C.ar    3  TETRAHYDROISOQUINOLINE3    0.1039
     26 S           5.4361  -10.3865   12.5514 S.O2    1  TOS11       2.2678
     27 O1          6.6534  -11.1560   12.3825 O.2     1  TOS11      -0.9242
     28 O2          4.3142  -10.9615   13.2679 O.2     1  TOS11      -0.9475
     29 C5          7.4308   -7.0634   13.7715 C.ar    4  NAPHTHALENE4   -0.2885
     30 C6          7.1378   -8.3139   13.2181 C.ar    4  NAPHTHALENE4   -0.0884
     31 C7          5.8313   -8.8077   13.2627 C.ar    4  NAPHTHALENE4   -0.4751
     32 C8          4.8173   -8.0343   13.8295 C.ar    4  NAPHTHALENE4   -0.1834
     33 C9          5.1039   -6.7783   14.3818 C.ar    4  NAPHTHALENE4    0.1763
     34 C10         6.4214   -6.2993   14.3632 C.ar    4  NAPHTHALENE4    0.2110
     35 H1          3.0607   -6.3556   14.9523 H       4  NAPHTHALENE4    0.1893
     36 C           5.5852   -7.6013   10.4465 C.2     2  APM22       0.3888
     37 CA          5.7685   -9.0645   10.1082 C.3     2  APM22       0.3302
     38 CB          5.4841   -9.3170    8.6027 C.3     2  APM22      -0.5019
     39 CG          4.1591   -8.6635    8.1767 C.ar    2  APM22       0.2141
     40 CD1         2.9519   -9.3624    8.1945 C.ar    2  APM22      -0.1619
     41 CD2         4.1188   -7.3421    7.7421 C.ar    2  APM22      -0.0308
     42 CE1         1.7550   -8.7106    7.8881 C.ar    2  APM22      -0.3837
     43 CE2         2.9466   -6.6690    7.4056 C.ar    2  APM22      -0.1883
     44 CZ          1.7465   -7.3704    7.4835 C.ar    2  APM22      -0.0550
     45 CF          0.4555   -9.4774    8.0035 C.3     2  APM22       1.1328
     46 O           4.5231   -7.3322   10.9881 O.2     2  APM22      -0.5829
     47 N           4.8825   -9.8379   10.9706 N.3     2  APM22      -0.9890
     48 NG1        -0.5990   -9.0456    7.3661 N.3     2  APM22      -1.0541
     49 NG2         0.4285  -10.5560    8.7404 N.3     2  APM22      -1.0038
     50 C9          8.5041   -4.5641   10.1554 C.ar    3  TETRAHYDROISOQUINOLINE3   -0.0762
     51 H1          5.8958   -5.2095   11.6513 H       3  TETRAHYDROISOQUINOLINE3    0.1247
     52 H2          5.1645   -4.9790   10.0346 H       3  TETRAHYDROISOQUINOLINE3    0.1224
     53 C           7.6254   -6.0907    8.1658 C.2     5  CO25        1.0325
     54 H6          9.8214   -6.2289    9.6559 H       3  TETRAHYDROISOQUINOLINE3    0.1027
     55 H7          8.9590   -6.3896   11.2195 H       3  TETRAHYDROISOQUINOLINE3    0.0696
     56 H8         10.5355   -3.8721    9.9317 H       3  TETRAHYDROISOQUINOLINE3    0.1785
     57 H2          3.5940   -4.1690   15.9709 H       4  NAPHTHALENE4    0.1640
     58 H3          5.9346   -3.3408   15.9892 H       4  NAPHTHALENE4    0.1572
     59 H4          7.7300   -4.6743   14.9387 H       4  NAPHTHALENE4    0.1951
     60 H5          8.4520   -6.6961   13.7372 H       4  NAPHTHALENE4    0.2110
     61 H6          7.9265   -8.8968   12.7558 H       4  NAPHTHALENE4    0.1959
     62 H8          3.8019   -8.4159   13.8362 H       4  NAPHTHALENE4    0.2167
     63 H9          9.8994   -1.4846    9.7522 H       3  TETRAHYDROISOQUINOLINE3    0.1648
     64 H10         7.5039   -0.8297    9.8119 H       3  TETRAHYDROISOQUINOLINE3    0.1659
     65 H11         5.7588   -2.5486   10.1781 H       3  TETRAHYDROISOQUINOLINE3    0.1834
     66 H66         8.0635   -7.8896    9.3586 H       3  TETRAHYDROISOQUINOLINE3    0.1786
     67 O           6.6096   -5.4579    7.9549 O.2     5  CO25       -0.6611
     68 O           8.6500   -6.0140    7.3138 O.3     5  CO25       -0.4526
     69 C1          8.2190   -5.4643    6.0492 C.3     6  BENZYL6    -0.0778
     70 ****        8.8131   -4.5604    5.8494 H       6  BENZYL6     0.1013
     71 ****        8.4394   -6.2331    5.2943 H       6  BENZYL6     0.1451
     72 ****        7.1514   -5.1927    5.9563 H       6  BENZYL6     0.0802
@<TRIPOS>BOND
     1    26    31    1
     2    29    30   ar
     3    29    34   ar
     4    29    60    1
     5    34     4   ar
     6    34    33   ar
     7    33     1   ar
     8    37     5    1
     9    38     6    1
    10    38     7    1
    11    40     8    1
    12    41     9    1
    13    43    10    1
    14    44    11    1
    15    47    12    1
    16    48    13    1
    17    48    14    1
    18    49    15    1
    19    49    16    1
    20    36    18   am
    21    21    22   ar
    22    21    50   ar
    23    21    56    1
    24    50    20    1
    25    50    25   ar
    26    25    17    1
    27    25    24   ar
    28    24    23   ar
    29    24    65    1
    30    33    32   ar
    31    26    28    2
    32    26    27    2
    33    32    31   ar
    34    32    62    1
    35    31    30   ar
    36    30    61    1
    37     1     2   ar
    38     1    35    1
    39    36    46    2
    40    37    36    1
    41    37    47    1
    42    38    37    1
    43    39    38    1
    44    39    41   ar
    45    40    39   ar
    46    42    40   ar
    47    45    42    1
    48    42    44   ar
    49    44    43   ar
    50    43    41   ar
    51    45    49    1
    52    45    48    1
    53    23    22   ar
    54    23    64    1
    55    22    63    1
    56    17    18    1
    57    17    51    1
    58    17    52    1
    59    18    19    1
    60    47    26    1
    61    19    20    1
    62    53    67    2
    63     2     3   ar
    64     2    57    1
    65     3     4   ar
    66     3    58    1
    67     4    59    1
    68    20    54    1
    69    20    55    1
    70    19    66    1
    71    53    68    1
    72    19    53    1
    73    69    70    1
    74    68    69    1
    75    69    71    1
    76    69    72    1
