@<TRIPOS>MOLECULE
62x
 60 62 0 0 0
SMALL
USER_CHARGES

@<TRIPOS>ATOM
      1 C1          5.2289   -5.7596   15.0921 C.3     3  NAPHTHALENE3   -0.0905
      2 C2          5.8692   -4.3528   15.1479 C.3     3  NAPHTHALENE3   -0.2953
      3 C3          7.3798   -4.4440   15.4982 C.3     3  NAPHTHALENE3    0.6850
      4 ****        6.7690   -9.2221   10.3536 H       2  APM22       0.0750
      5 ****        5.3214  -10.4523    8.6045 H       2  APM22       0.1523
      6 ****        6.1961   -9.0107    8.0561 H       2  APM22       0.1231
      7 ****        2.8747  -10.4141    8.3797 H       2  APM22       0.1937
      8 ****        5.1030   -6.8228    7.6985 H       2  APM22       0.1967
      9 ****        3.0162   -5.6202    7.1448 H       2  APM22       0.2004
     10 ****        0.8461   -6.7246    7.4295 H       2  APM22       0.1641
     11 ****        3.9785   -9.9864   10.9556 H       2  APM22       0.3649
     12 ****       -1.5814   -9.3348    7.1509 H       2  APM22       0.5676
     13 ****       -0.5610   -7.9924    6.6347 H       2  APM22       0.5530
     14 ****        0.9601  -10.9581    8.9919 H       2  APM22       0.5365
     15 ****       -0.7042  -11.0417    8.4119 H       2  APM22       0.5702
     16 N16         6.3410   -6.6260   10.0699 N.am    2  APM22      -0.7383
     17 ****        7.1540   -6.8952    9.5492 H       2  APM22       0.4354
     18 C18         6.1471   -5.1999   10.3293 C.3     2  APM22      -0.0548
     19 ****        7.0163   -4.8039   10.8787 H       2  APM22       0.1065
     20 ****        5.2443   -4.9787   10.9200 H       2  APM22       0.1061
     21 ****        6.0646   -4.6641    9.3700 H       2  APM22       0.0871
     22 S           5.7027  -10.3973   12.6147 S.O2    1  TOS11       2.2633
     23 O1          6.7684  -11.3127   12.2563 O.2     1  TOS11      -0.9275
     24 O2          4.6623  -10.8346   13.5256 O.2     1  TOS11      -0.9608
     25 O4          8.0313   -5.2055   14.4672 O.3     3  NAPHTHALENE3   -0.5440
     26 C5          8.2933   -7.3720   13.4456 C.ar    3  NAPHTHALENE3   -0.4203
     27 C6          7.7646   -8.5912   13.0130 C.ar    3  NAPHTHALENE3    0.0058
     28 C7          6.4152   -8.8847   13.2293 C.ar    3  NAPHTHALENE3   -0.5490
     29 C8          5.6125   -7.9614   13.9021 C.ar    3  NAPHTHALENE3   -0.1010
     30 C9          6.1381   -6.7416   14.3441 C.ar    3  NAPHTHALENE3   -0.1363
     31 C10         7.4829   -6.4363   14.0953 C.ar    3  NAPHTHALENE3    0.5424
     32 C           5.4509   -7.5473   10.5060 C.2     2  APM22       0.7077
     33 CA          5.7014   -9.0021   10.1877 C.3     2  APM22       0.2335
     34 CB          5.3815   -9.3575    8.7084 C.3     2  APM22      -0.3797
     35 CG          4.1005   -8.6686    8.2151 C.ar    2  APM22       0.1354
     36 CD1         2.8772   -9.3498    8.1722 C.ar    2  APM22      -0.1052
     37 CD2         4.1529   -7.3380    7.7874 C.ar    2  APM22      -0.0547
     38 CE1         1.6867   -8.6779    7.8569 C.ar    2  APM22      -0.3665
     39 CE2         2.9784   -6.6552    7.4666 C.ar    2  APM22      -0.1790
     40 CZ          1.7485   -7.3092    7.5710 C.ar    2  APM22      -0.0561
     41 CF          0.3469   -9.3967    7.8198 C.3     2  APM22       1.0890
     42 O           4.4489   -7.2613   11.1446 O.2     2  APM22      -0.6100
     43 N           4.9465   -9.8108   11.1333 N.3     2  APM22      -0.9377
     44 NG1        -0.6630   -8.8711    7.1638 N.3     2  APM22      -1.0335
     45 NG2         0.1938  -10.5403    8.4449 N.3     2  APM22      -0.9840
     46 H5          9.3399   -7.1454   13.2757 H       3  NAPHTHALENE3    0.2492
     47 H6          8.4059   -9.3044   12.5074 H       3  NAPHTHALENE3    0.2024
     48 H8          4.5681   -8.1960   14.0795 H       3  NAPHTHALENE3    0.2109
     49 ****        5.0618   -6.1524   16.1084 H       3  NAPHTHALENE3    0.0724
     50 ****        4.2483   -5.6974   14.5924 H       3  NAPHTHALENE3    0.0910
     51 ****        5.7728   -3.8877   14.1532 H       3  NAPHTHALENE3    0.0854
     52 ****        5.3329   -3.7223   15.8771 H       3  NAPHTHALENE3    0.1132
     53 C18         8.0056   -3.0216   15.4809 C.3     3  NAPHTHALENE3   -0.4864
     54 C19         7.6345   -5.0993   16.8852 C.3     3  NAPHTHALENE3   -0.3607
     55 ****        7.5329   -2.3802   16.2410 H       3  NAPHTHALENE3    0.1286
     56 ****        7.8676   -2.5556   14.4934 H       3  NAPHTHALENE3    0.1086
     57 ****        9.0854   -3.0723   15.6858 H       3  NAPHTHALENE3    0.1463
     58 ****        7.0982   -4.5465   17.6726 H       3  NAPHTHALENE3    0.1053
     59 ****        8.7102   -5.0805   17.1178 H       3  NAPHTHALENE3    0.1018
     60 ****        7.3121   -6.1497   16.9091 H       3  NAPHTHALENE3    0.0837
@<TRIPOS>BOND
     1    22    28    1
     2    26    27   ar
     3    26    31   ar
     4    26    46    1
     5    31    25    1
     6    31    30   ar
     7    30     1    1
     8    33     4    1
     9    34     5    1
    10    34     6    1
    11    36     7    1
    12    37     8    1
    13    39     9    1
    14    40    10    1
    15    43    11    1
    16    44    12    1
    17    44    13    1
    18    45    14    1
    19    45    15    1
    20    32    16   am
    21    16    17    1
    22    16    18    1
    23    18    19    1
    24    18    20    1
    25    18    21    1
    26    30    29   ar
    27    22    24    2
    28    22    23    2
    29    29    48    1
    30    29    28   ar
    31    28    27   ar
    32    27    47    1
    33     1    50    1
    34    32    42    2
    35    33    32    1
    36    33    43    1
    37    34    33    1
    38    35    34    1
    39    35    37   ar
    40    36    35   ar
    41    38    36   ar
    42    41    38    1
    43    38    40   ar
    44    40    39   ar
    45    39    37   ar
    46    41    45    1
    47    41    44    1
    48    43    22    1
    49     1    49    1
    50     1     2    1
    51     2     3    1
    52     2    52    1
    53     2    51    1
    54     3    54    1
    55     3    53    1
    56     3    25    1
    57    53    57    1
    58    53    56    1
    59    53    55    1
    60    54    60    1
    61    54    59    1
    62    54    58    1
