@<TRIPOS>MOLECULE
11_21
 44 47 0 0 0
SMALL
USER_CHARGES
****
From 3DB ct
@<TRIPOS>ATOM
      1 C          25.4820   21.5020   17.2310 C.ar    1  LIG1       -0.6038
      2 C          26.4400   22.0700   16.4010 C.ar    1  LIG1        0.4930
      3 N          27.7400   22.0460   16.8910 N.ar    1  LIG1       -0.5467
      4 C          27.7740   21.4190   18.0490 C.ar    1  LIG1       -0.0889
      5 S          26.2530   20.8930   18.6460 S.2     1  LIG1        0.2378
      6 C          28.9790   21.2240   18.8550 C.ar    1  LIG1        0.7122
      7 C          30.1960   21.7380   18.3720 C.ar    1  LIG1       -0.5027
      8 H          30.2270   22.2680   17.4210 H       1  LIG1        0.2630
      9 C          31.3780   21.5820   19.1010 C.ar    1  LIG1        0.0490
     10 H          32.3110   21.9900   18.7160 H       1  LIG1        0.1343
     11 C          31.3610   20.9050   20.3170 C.ar    1  LIG1       -0.2894
     12 H          32.2810   20.7820   20.8860 H       1  LIG1        0.1825
     13 C          30.1640   20.3780   20.8040 C.ar    1  LIG1        0.2352
     14 H          30.1660   19.8420   21.7510 H       1  LIG1        0.0823
     15 C          28.9770   20.5310   20.0770 C.ar    1  LIG1       -0.7081
     16 CL         27.5440   19.8150   20.7340 Cl      1  LIG1        0.1339
     17 C          26.1690   22.6900   15.1090 C.ar    1  LIG1       -0.1052
     18 C          25.6690   21.9460   14.0290 C.ar    1  LIG1       -0.0330
     19 H          25.4740   20.8800   14.1270 H       1  LIG1        0.1160
     20 C          25.4230   22.5640   12.8000 C.ar    1  LIG1       -0.3955
     21 H          25.0340   21.9910   11.9630 H       1  LIG1        0.2298
     22 C          25.6860   23.9200   12.6490 C.ar    1  LIG1        0.5513
     23 C          26.1940   24.6710   13.7010 C.ar    1  LIG1       -0.3515
     24 H          26.3990   25.7290   13.5640 H       1  LIG1        0.2167
     25 C          26.4400   24.0550   14.9310 C.ar    1  LIG1       -0.0927
     26 H          26.8410   24.6480   15.7520 H       1  LIG1        0.1970
     27 F          25.4510   24.5110   11.4690 F       1  LIG1       -0.3629
     28 C          24.0250   21.4010   17.1130 C.ar    1  LIG1        0.4840
     29 C          23.3100   20.4300   17.8310 C.ar    1  LIG1       -0.2626
     30 H          23.8300   19.7330   18.4890 H       1  LIG1        0.1955
     31 C          21.9210   20.3300   17.7060 C.ar    1  LIG1       -0.0375
     32 H          21.3870   19.5680   18.2700 H       1  LIG1        0.1890
     33 C          21.2390   21.2100   16.8630 C.ar    1  LIG1       -0.5260
     34 C          21.9360   22.1760   16.1330 C.ar    1  LIG1       -0.0312
     35 H          21.4140   22.8590   15.4660 H       1  LIG1        0.2022
     36 C          23.3250   22.2700   16.2620 C.ar    1  LIG1       -0.3027
     37 H          23.8550   23.0320   15.6920 H       1  LIG1        0.1876
     38 S          19.4740   21.0720   16.6870 S.O2    1  LIG1        2.2091
     39 O          18.9390   22.4130   16.4750 O.2     1  LIG1       -0.9728
     40 O          18.9700   20.2930   17.8140 O.2     1  LIG1       -0.9721
     41 C          19.2730   20.1280   15.2000 C.3     1  LIG1       -0.7618
     42 H          18.2030   19.9990   15.0220 H       1  LIG1        0.2482
     43 H          19.7490   19.1540   15.3290 H       1  LIG1        0.2002
     44 H          19.7240   20.6740   14.3680 H       1  LIG1        0.1974
@<TRIPOS>BOND
     1     1     2   ar
     2     2     3   ar
     3     3     4   ar
     4     4     5   ar
     5     5     1   ar
     6     4     6    1
     7     6     7   ar
     8     7     8    1
     9     7     9   ar
    10     9    10    1
    11     9    11   ar
    12    11    12    1
    13    11    13   ar
    14    13    14    1
    15    13    15   ar
    16    15     6   ar
    17    15    16    1
    18     2    17    1
    19    17    18   ar
    20    18    19    1
    21    18    20   ar
    22    20    21    1
    23    20    22   ar
    24    22    23   ar
    25    23    24    1
    26    23    25   ar
    27    25    26    1
    28    25    17   ar
    29    22    27    1
    30     1    28    1
    31    28    29   ar
    32    29    30    1
    33    29    31   ar
    34    31    32    1
    35    31    33   ar
    36    33    34   ar
    37    34    35    1
    38    34    36   ar
    39    36    37    1
    40    36    28   ar
    41    33    38    1
    42    38    39    2
    43    38    40    2
    44    38    41    1
    45    41    42    1
    46    41    43    1
    47    41    44    1
