@<TRIPOS>MOLECULE
1_3
 36 38 0 0 0
SMALL
USER_CHARGES
****
From 3DB ct
@<TRIPOS>ATOM
      1 N          25.4850   21.5400   17.3070 N.ar    1  LIG1       -0.0452
      2 C          26.4310   22.0070   16.3840 C.ar    1  LIG1       -0.1262
      3 C          27.6900   21.8140   16.9410 C.ar    1  LIG1       -0.2017
      4 H          28.6300   22.0720   16.4650 H       1  LIG1        0.2024
      5 C          27.5290   21.3020   18.2400 C.ar    1  LIG1       -0.2730
      6 H          28.3110   21.0600   18.9510 H       1  LIG1        0.2206
      7 C          26.1780   21.1760   18.4530 C.ar    1  LIG1       -0.2565
      8 H          25.6600   20.7920   19.3220 H       1  LIG1        0.2553
      9 C          26.1540   22.6870   15.1150 C.ar    1  LIG1        0.0227
     10 C          26.4310   24.0530   14.9580 C.ar    1  LIG1       -0.0420
     11 H          26.8420   24.6330   15.7840 H       1  LIG1        0.1671
     12 C          26.1860   24.6890   13.7390 C.ar    1  LIG1       -0.4287
     13 H          26.3960   25.7480   13.6170 H       1  LIG1        0.2362
     14 C          25.6740   23.9560   12.6750 C.ar    1  LIG1        0.5980
     15 C          25.4050   22.5990   12.8050 C.ar    1  LIG1       -0.4244
     16 H          25.0100   22.0400   11.9620 H       1  LIG1        0.2326
     17 C          25.6510   21.9620   14.0240 C.ar    1  LIG1       -0.0837
     18 H          25.4400   20.8980   14.1180 H       1  LIG1        0.1748
     19 F          25.4400   24.5660   11.5050 F       1  LIG1       -0.3703
     20 C          24.0660   21.4030   17.1540 C.ar    1  LIG1        0.3534
     21 C          23.3650   22.2810   16.3090 C.ar    1  LIG1       -0.2989
     22 H          23.8760   23.0420   15.7230 H       1  LIG1        0.1970
     23 C          21.9790   22.1690   16.1580 C.ar    1  LIG1        0.0150
     24 H          21.4590   22.8490   15.4870 H       1  LIG1        0.1918
     25 C          21.2820   21.1890   16.8660 C.ar    1  LIG1       -0.5441
     26 C          21.9620   20.3140   17.7140 C.ar    1  LIG1        0.0250
     27 H          21.4280   19.5500   18.2760 H       1  LIG1        0.1890
     28 C          23.3500   20.4270   17.8620 C.ar    1  LIG1       -0.3305
     29 H          23.8320   19.7630   18.5740 H       1  LIG1        0.2018
     30 S          19.5230   21.0380   16.6580 S.O2    1  LIG1        2.1881
     31 O          18.9780   22.3730   16.4320 O.2     1  LIG1       -0.9705
     32 O          19.0060   20.2590   17.7790 O.2     1  LIG1       -0.9708
     33 C          19.3540   20.0910   15.1690 C.3     1  LIG1       -0.7161
     34 H          18.2880   19.9570   14.9710 H       1  LIG1        0.2353
     35 H          19.8310   19.1190   15.3080 H       1  LIG1        0.1873
     36 H          19.8190   20.6370   14.3460 H       1  LIG1        0.1894
@<TRIPOS>BOND
     1     1     2   ar
     2     2     3   ar
     3     3     4    1
     4     3     5   ar
     5     5     6    1
     6     5     7   ar
     7     7     8    1
     8     7     1   ar
     9     2     9    1
    10     9    10   ar
    11    10    11    1
    12    10    12   ar
    13    12    13    1
    14    12    14   ar
    15    14    15   ar
    16    15    16    1
    17    15    17   ar
    18    17    18    1
    19    17     9   ar
    20    14    19    1
    21     1    20    1
    22    20    21   ar
    23    21    22    1
    24    21    23   ar
    25    23    24    1
    26    23    25   ar
    27    25    26   ar
    28    26    27    1
    29    26    28   ar
    30    28    29    1
    31    28    20   ar
    32    25    30    1
    33    30    31    2
    34    30    32    2
    35    30    33    1
    36    33    34    1
    37    33    35    1
    38    33    36    1
