@<TRIPOS>MOLECULE
3_28
 42 44 0 0 0
SMALL
USER_CHARGES
****
From 3DB ct
@<TRIPOS>ATOM
      1 C          26.4080   22.1290   16.4590 C.ar    1  LIG1        0.4379
      2 N          25.4700   21.4600   17.2560 N.ar    1  LIG1       -0.1697
      3 C          26.1980   20.8870   18.2830 C.ar    1  LIG1       -0.2150
      4 H          25.7400   20.2820   19.0530 H       1  LIG1        0.2892
      5 C          27.5010   21.3260   18.1630 C.ar    1  LIG1       -0.2584
      6 N          27.6060   22.1150   17.0300 N.ar    1  LIG1       -0.4704
      7 C          28.6680   21.0470   19.0640 C.3     1  LIG1        1.5115
      8 F          28.3510   20.2150   20.0990 F       1  LIG1       -0.4778
      9 F          29.1710   22.1840   19.6280 F       1  LIG1       -0.4419
     10 F          29.7040   20.4540   18.4020 F       1  LIG1       -0.4427
     11 C          24.0490   21.3740   17.1200 C.ar    1  LIG1        0.3632
     12 C          23.3440   22.2590   16.2900 C.ar    1  LIG1       -0.3802
     13 H          23.8370   23.0590   15.7460 H       1  LIG1        0.2261
     14 C          21.9520   22.1710   16.1770 C.ar    1  LIG1        0.0738
     15 H          21.4250   22.8690   15.5290 H       1  LIG1        0.1857
     16 C          21.2550   21.2080   16.9090 C.ar    1  LIG1       -0.5494
     17 C          21.9400   20.3250   17.7440 C.ar    1  LIG1        0.0140
     18 H          21.4070   19.5650   18.3120 H       1  LIG1        0.1959
     19 C          23.3320   20.4150   17.8550 C.ar    1  LIG1       -0.2924
     20 H          23.8320   19.6960   18.5020 H       1  LIG1        0.2054
     21 S          19.4880   21.0860   16.7480 S.O2    1  LIG1        2.1904
     22 O          18.9610   22.4310   16.5410 O.2     1  LIG1       -0.9650
     23 O          18.9890   20.3120   17.8810 O.2     1  LIG1       -0.9618
     24 C          19.2650   20.1450   15.2620 C.3     1  LIG1       -0.7180
     25 H          18.1920   20.0290   15.0930 H       1  LIG1        0.2406
     26 H          19.7290   19.1650   15.3880 H       1  LIG1        0.1919
     27 H          19.7160   20.6850   14.4280 H       1  LIG1        0.1880
     28 C          26.1820   22.7040   15.1290 C.ar    1  LIG1       -0.2556
     29 C          26.4480   24.0640   14.9060 C.ar    1  LIG1        0.0606
     30 H          26.8020   24.6780   15.7330 H       1  LIG1        0.1565
     31 C          26.2520   24.6370   13.6430 C.ar    1  LIG1       -0.1463
     32 C          25.8210   23.8290   12.5870 C.ar    1  LIG1       -0.0635
     33 H          25.6880   24.2360   11.5870 H       1  LIG1        0.1834
     34 C          25.5750   22.4700   12.7920 C.ar    1  LIG1       -0.2621
     35 H          25.2470   21.8460   11.9630 H       1  LIG1        0.1783
     36 C          25.7580   21.9090   14.0560 C.ar    1  LIG1        0.0370
     37 H          25.5730   20.8440   14.1930 H       1  LIG1        0.1128
     38 S          26.6110   26.3720   13.4230 S.3     1  LIG1       -0.0609
     39 C          27.1010   26.8230   15.1140 C.3     1  LIG1       -0.1959
     40 H          27.4980   27.8420   15.1080 H       1  LIG1        0.1387
     41 H          27.8810   26.1500   15.4810 H       1  LIG1        0.0781
     42 H          26.2430   26.7950   15.7900 H       1  LIG1        0.0681
@<TRIPOS>BOND
     1     1     2   ar
     2     2     3   ar
     3     3     4    1
     4     3     5   ar
     5     5     6   ar
     6     6     1   ar
     7     5     7    1
     8     7     8    1
     9     7     9    1
    10     7    10    1
    11     2    11    1
    12    11    12   ar
    13    12    13    1
    14    12    14   ar
    15    14    15    1
    16    14    16   ar
    17    16    17   ar
    18    17    18    1
    19    17    19   ar
    20    19    20    1
    21    19    11   ar
    22    16    21    1
    23    21    22    2
    24    21    23    2
    25    21    24    1
    26    24    25    1
    27    24    26    1
    28    24    27    1
    29     1    28    1
    30    28    29   ar
    31    29    30    1
    32    29    31   ar
    33    31    32   ar
    34    32    33    1
    35    32    34   ar
    36    34    35    1
    37    34    36   ar
    38    36    37    1
    39    36    28   ar
    40    31    38    1
    41    38    39    1
    42    39    40    1
    43    39    41    1
    44    39    42    1
