@<TRIPOS>MOLECULE
3_30
 46 48 0 0 0
SMALL
USER_CHARGES
****
From 3DB ct
@<TRIPOS>ATOM
      1 C          26.4060   22.1250   16.4570 C.ar    1  LIG1        0.4119
      2 N          25.4680   21.4600   17.2570 N.ar    1  LIG1       -0.1697
      3 C          26.1970   20.8920   18.2870 C.ar    1  LIG1       -0.2246
      4 H          25.7380   20.2900   19.0590 H       1  LIG1        0.2920
      5 C          27.4990   21.3290   18.1630 C.ar    1  LIG1       -0.2641
      6 N          27.6040   22.1130   17.0280 N.ar    1  LIG1       -0.4712
      7 C          28.6670   21.0510   19.0640 C.3     1  LIG1        1.5283
      8 F          28.3580   20.1990   20.0850 F       1  LIG1       -0.4831
      9 F          29.1520   22.1860   19.6480 F       1  LIG1       -0.4446
     10 F          29.7140   20.4840   18.3970 F       1  LIG1       -0.4486
     11 C          24.0470   21.3750   17.1230 C.ar    1  LIG1        0.3601
     12 C          23.3410   22.2580   16.2930 C.ar    1  LIG1       -0.3463
     13 H          23.8350   23.0590   15.7480 H       1  LIG1        0.2179
     14 C          21.9490   22.1700   16.1800 C.ar    1  LIG1        0.0495
     15 H          21.4220   22.8670   15.5310 H       1  LIG1        0.1881
     16 C          21.2530   21.2070   16.9120 C.ar    1  LIG1       -0.5467
     17 C          21.9390   20.3250   17.7480 C.ar    1  LIG1        0.0151
     18 H          21.4070   19.5640   18.3160 H       1  LIG1        0.1959
     19 C          23.3310   20.4160   17.8600 C.ar    1  LIG1       -0.2973
     20 H          23.8310   19.6980   18.5070 H       1  LIG1        0.2058
     21 S          19.4870   21.0810   16.7500 S.O2    1  LIG1        2.1936
     22 O          18.9570   22.4260   16.5460 O.2     1  LIG1       -0.9671
     23 O          18.9880   20.3030   17.8800 O.2     1  LIG1       -0.9639
     24 C          19.2660   20.1440   15.2610 C.3     1  LIG1       -0.7286
     25 H          18.1930   20.0260   15.0910 H       1  LIG1        0.2416
     26 H          19.7320   19.1650   15.3850 H       1  LIG1        0.1938
     27 H          19.7160   20.6870   14.4290 H       1  LIG1        0.1923
     28 C          26.1800   22.6940   15.1230 C.ar    1  LIG1        0.0038
     29 C          26.4420   24.0600   14.8950 C.ar    1  LIG1       -0.3355
     30 H          26.7900   24.6450   15.7440 H       1  LIG1        0.2008
     31 C          26.2660   24.6680   13.6370 C.ar    1  LIG1        0.3575
     32 C          25.8220   23.8260   12.6030 C.ar    1  LIG1       -0.2824
     33 H          25.6570   24.2090   11.5970 H       1  LIG1        0.1655
     34 C          25.5760   22.4620   12.8020 C.ar    1  LIG1       -0.1427
     35 H          25.2420   21.8440   11.9700 H       1  LIG1        0.1674
     36 C          25.7620   21.8950   14.0580 C.ar    1  LIG1       -0.1695
     37 H          25.5790   20.8300   14.1930 H       1  LIG1        0.1313
     38 N          26.5170   26.0200   13.4290 N.pl3   1  LIG1       -0.4122
     39 C          26.3290   26.6350   12.1140 C.3     1  LIG1       -0.0066
     40 H          26.5750   27.7030   12.1230 H       1  LIG1        0.0920
     41 H          25.2860   26.5510   11.7920 H       1  LIG1        0.0461
     42 H          26.9810   26.1650   11.3690 H       1  LIG1        0.0539
     43 C          26.9780   26.8850   14.5170 C.3     1  LIG1        0.0217
     44 H          27.1240   27.9180   14.1830 H       1  LIG1        0.0786
     45 H          27.9400   26.5370   14.9080 H       1  LIG1        0.0570
     46 H          26.2420   26.9130   15.3280 H       1  LIG1        0.0430
@<TRIPOS>BOND
     1     1     2   ar
     2     2     3   ar
     3     3     4    1
     4     3     5   ar
     5     5     6   ar
     6     6     1   ar
     7     5     7    1
     8     7     8    1
     9     7     9    1
    10     7    10    1
    11     2    11    1
    12    11    12   ar
    13    12    13    1
    14    12    14   ar
    15    14    15    1
    16    14    16   ar
    17    16    17   ar
    18    17    18    1
    19    17    19   ar
    20    19    20    1
    21    19    11   ar
    22    16    21    1
    23    21    22    2
    24    21    23    2
    25    21    24    1
    26    24    25    1
    27    24    26    1
    28    24    27    1
    29     1    28    1
    30    28    29   ar
    31    29    30    1
    32    29    31   ar
    33    31    32   ar
    34    32    33    1
    35    32    34   ar
    36    34    35    1
    37    34    36   ar
    38    36    37    1
    39    36    28   ar
    40    31    38    1
    41    38    39    1
    42    39    40    1
    43    39    41    1
    44    39    42    1
    45    38    43    1
    46    43    44    1
    47    43    45    1
    48    43    46    1
