@<TRIPOS>MOLECULE
3_31
 43 45 0 0 0
SMALL
USER_CHARGES
****
From 3DB ct
@<TRIPOS>ATOM
      1 C          26.4070   22.1270   16.4580 C.ar    1  LIG1        0.4391
      2 N          25.4690   21.4610   17.2570 N.ar    1  LIG1       -0.1782
      3 C          26.1970   20.8900   18.2850 C.ar    1  LIG1       -0.2251
      4 H          25.7390   20.2870   19.0560 H       1  LIG1        0.2912
      5 C          27.5000   21.3270   18.1630 C.ar    1  LIG1       -0.2575
      6 N          27.6050   22.1130   17.0290 N.ar    1  LIG1       -0.4798
      7 C          28.6680   21.0480   19.0640 C.3     1  LIG1        1.5204
      8 F          28.3540   20.2100   20.0950 F       1  LIG1       -0.4819
      9 F          29.1660   22.1840   19.6320 F       1  LIG1       -0.4437
     10 F          29.7070   20.4620   18.3990 F       1  LIG1       -0.4454
     11 C          24.0480   21.3750   17.1220 C.ar    1  LIG1        0.3612
     12 C          23.3420   22.2590   16.2920 C.ar    1  LIG1       -0.3498
     13 H          23.8350   23.0590   15.7470 H       1  LIG1        0.2152
     14 C          21.9500   22.1700   16.1790 C.ar    1  LIG1        0.0589
     15 H          21.4230   22.8670   15.5300 H       1  LIG1        0.1871
     16 C          21.2540   21.2070   16.9100 C.ar    1  LIG1       -0.5491
     17 C          21.9390   20.3250   17.7460 C.ar    1  LIG1        0.0095
     18 H          21.4070   19.5640   18.3140 H       1  LIG1        0.1961
     19 C          23.3310   20.4160   17.8580 C.ar    1  LIG1       -0.2915
     20 H          23.8310   19.6970   18.5050 H       1  LIG1        0.2050
     21 S          19.4870   21.0840   16.7490 S.O2    1  LIG1        2.1935
     22 O          18.9590   22.4280   16.5380 O.2     1  LIG1       -0.9672
     23 O          18.9870   20.3120   17.8820 O.2     1  LIG1       -0.9641
     24 C          19.2660   20.1400   15.2640 C.3     1  LIG1       -0.7262
     25 H          18.1930   20.0230   15.0940 H       1  LIG1        0.2412
     26 H          19.7300   19.1600   15.3920 H       1  LIG1        0.1937
     27 H          19.7170   20.6790   14.4290 H       1  LIG1        0.1907
     28 C          26.1810   22.6990   15.1260 C.ar    1  LIG1       -0.0300
     29 C          26.4430   24.0620   14.8990 C.ar    1  LIG1       -0.2799
     30 H          26.7930   24.6740   15.7300 H       1  LIG1        0.1901
     31 C          26.2590   24.6520   13.6400 C.ar    1  LIG1        0.4685
     32 C          25.8160   23.8320   12.5970 C.ar    1  LIG1       -0.4145
     33 H          25.6560   24.2350   11.5990 H       1  LIG1        0.1817
     34 C          25.5720   22.4690   12.7980 C.ar    1  LIG1       -0.0475
     35 H          25.2370   21.8500   11.9670 H       1  LIG1        0.1520
     36 C          25.7600   21.9030   14.0560 C.ar    1  LIG1       -0.2222
     37 H          25.5770   20.8380   14.1910 H       1  LIG1        0.1422
     38 N          26.5200   25.9990   13.4860 N.pl3   1  LIG1       -0.7753
     39 H          26.3860   26.4270   12.5690 H       1  LIG1        0.4451
     40 C          26.9830   26.8680   14.5480 C.3     1  LIG1        0.0658
     41 H          27.1130   27.8830   14.1590 H       1  LIG1        0.0690
     42 H          27.9500   26.5330   14.9380 H       1  LIG1        0.0595
     43 H          26.2560   26.9140   15.3650 H       1  LIG1        0.0521
@<TRIPOS>BOND
     1     1     2   ar
     2     2     3   ar
     3     3     4    1
     4     3     5   ar
     5     5     6   ar
     6     6     1   ar
     7     5     7    1
     8     7     8    1
     9     7     9    1
    10     7    10    1
    11     2    11    1
    12    11    12   ar
    13    12    13    1
    14    12    14   ar
    15    14    15    1
    16    14    16   ar
    17    16    17   ar
    18    17    18    1
    19    17    19   ar
    20    19    20    1
    21    19    11   ar
    22    16    21    1
    23    21    22    2
    24    21    23    2
    25    21    24    1
    26    24    25    1
    27    24    26    1
    28    24    27    1
    29     1    28    1
    30    28    29   ar
    31    29    30    1
    32    29    31   ar
    33    31    32   ar
    34    32    33    1
    35    32    34   ar
    36    34    35    1
    37    34    36   ar
    38    36    37    1
    39    36    28   ar
    40    31    38    1
    41    38    39    1
    42    38    40    1
    43    40    41    1
    44    40    42    1
    45    40    43    1
