@<TRIPOS>MOLECULE
3_46
 42 44 0 0 0
SMALL
USER_CHARGES
****
From 3DB ct
@<TRIPOS>ATOM
      1 C          26.4060   22.1310   16.4600 C.ar    1  LIG1        0.4211
      2 N          25.4690   21.4590   17.2550 N.ar    1  LIG1       -0.2220
      3 C          26.1990   20.8830   18.2790 C.ar    1  LIG1       -0.2112
      4 H          25.7410   20.2730   19.0460 H       1  LIG1        0.2954
      5 C          27.5000   21.3280   18.1620 C.ar    1  LIG1       -0.2417
      6 N          27.6020   22.1200   17.0320 N.ar    1  LIG1       -0.4664
      7 C          28.6670   21.0500   19.0630 C.3     1  LIG1        1.5150
      8 F          28.3450   20.2380   20.1120 F       1  LIG1       -0.4793
      9 F          29.1850   22.1900   19.6070 F       1  LIG1       -0.4387
     10 F          29.6940   20.4360   18.4050 F       1  LIG1       -0.4467
     11 C          24.0480   21.3730   17.1200 C.ar    1  LIG1        0.4166
     12 C          23.3430   22.2580   16.2910 C.ar    1  LIG1       -0.4041
     13 H          23.8360   23.0590   15.7480 H       1  LIG1        0.2272
     14 C          21.9510   22.1700   16.1790 C.ar    1  LIG1        0.0711
     15 H          21.4230   22.8680   15.5310 H       1  LIG1        0.1836
     16 C          21.2540   21.2070   16.9110 C.ar    1  LIG1       -0.5443
     17 C          21.9400   20.3240   17.7450 C.ar    1  LIG1        0.0385
     18 H          21.4070   19.5640   18.3140 H       1  LIG1        0.1921
     19 C          23.3320   20.4140   17.8570 C.ar    1  LIG1       -0.3119
     20 H          23.8320   19.6960   18.5030 H       1  LIG1        0.2063
     21 S          19.4870   21.0870   16.7520 S.O2    1  LIG1        2.1648
     22 O          18.9610   22.4330   16.5430 O.2     1  LIG1       -0.9523
     23 O          18.9880   20.3140   17.8850 O.2     1  LIG1       -0.9528
     24 C          19.2610   20.1450   15.2660 C.3     1  LIG1       -0.7287
     25 H          18.1880   20.0310   15.0980 H       1  LIG1        0.2487
     26 H          19.7230   19.1650   15.3920 H       1  LIG1        0.1935
     27 H          19.7130   20.6840   14.4320 H       1  LIG1        0.1905
     28 C          26.1810   22.7070   15.1300 C.ar    1  LIG1       -0.1487
     29 C          26.4390   24.0650   14.9090 C.ar    1  LIG1        0.1344
     30 H          26.7830   24.6870   15.7350 H       1  LIG1        0.1310
     31 C          26.2560   24.6310   13.6420 C.ar    1  LIG1       -0.4781
     32 C          25.8260   23.8380   12.5650 C.ar    1  LIG1        0.3038
     33 C          25.5800   22.4760   12.7860 C.ar    1  LIG1       -0.3352
     34 H          25.2480   21.8330   11.9720 H       1  LIG1        0.1987
     35 C          25.7650   21.9140   14.0530 C.ar    1  LIG1        0.0200
     36 H          25.5830   20.8480   14.1860 H       1  LIG1        0.1228
     37 S          25.5590   24.4680   10.9090 S.3     1  LIG1       -0.1212
     38 C          25.0260   22.9240   10.1190 C.3     1  LIG1       -0.1993
     39 H          24.8090   23.1170    9.0650 H       1  LIG1        0.1453
     40 H          24.1190   22.5430   10.5970 H       1  LIG1        0.0720
     41 H          25.8120   22.1670   10.1790 H       1  LIG1        0.0687
     42 CL         26.5810   26.3230   13.4730 Cl      1  LIG1        0.1215
@<TRIPOS>BOND
     1     1     2   ar
     2     2     3   ar
     3     3     4    1
     4     3     5   ar
     5     5     6   ar
     6     6     1   ar
     7     5     7    1
     8     7     8    1
     9     7     9    1
    10     7    10    1
    11     2    11    1
    12    11    12   ar
    13    12    13    1
    14    12    14   ar
    15    14    15    1
    16    14    16   ar
    17    16    17   ar
    18    17    18    1
    19    17    19   ar
    20    19    20    1
    21    19    11   ar
    22    16    21    1
    23    21    22    2
    24    21    23    2
    25    21    24    1
    26    24    25    1
    27    24    26    1
    28    24    27    1
    29     1    28    1
    30    28    29   ar
    31    29    30    1
    32    29    31   ar
    33    31    32   ar
    34    32    33   ar
    35    33    34    1
    36    33    35   ar
    37    35    36    1
    38    35    28   ar
    39    32    37    1
    40    37    38    1
    41    38    39    1
    42    38    40    1
    43    38    41    1
    44    31    42    1
