@<TRIPOS>MOLECULE
3_90
 36 38 0 0 0
SMALL
USER_CHARGES
****
From 3DB ct
@<TRIPOS>ATOM
      1 C          26.4090   22.1310   16.4600 C.ar    1  LIG1        0.0956
      2 N          25.4690   21.4580   17.2570 N.ar    1  LIG1       -0.0449
      3 C          26.1970   20.8840   18.2840 C.ar    1  LIG1       -0.4987
      4 H          25.7420   20.2770   19.0540 H       1  LIG1        0.3382
      5 C          27.4830   21.3350   18.1440 C.ar    1  LIG1        0.4246
      6 N          27.6080   22.1180   17.0290 N.ar    1  LIG1       -0.4886
      7 C          28.5960   21.0680   19.0060 C.1     1  LIG1        0.0470
      8 N          29.5000   20.8510   19.7080 N.1     1  LIG1       -0.2526
      9 C          24.0480   21.3730   17.1200 C.ar    1  LIG1        0.3845
     10 C          23.3440   22.2580   16.2910 C.ar    1  LIG1       -0.4056
     11 H          23.8370   23.0590   15.7470 H       1  LIG1        0.2298
     12 C          21.9510   22.1700   16.1780 C.ar    1  LIG1        0.0695
     13 H          21.4240   22.8680   15.5300 H       1  LIG1        0.1877
     14 C          21.2550   21.2070   16.9100 C.ar    1  LIG1       -0.5458
     15 C          21.9390   20.3240   17.7450 C.ar    1  LIG1        0.0228
     16 H          21.4070   19.5640   18.3130 H       1  LIG1        0.1927
     17 C          23.3310   20.4140   17.8570 C.ar    1  LIG1       -0.3182
     18 H          23.8310   19.6950   18.5030 H       1  LIG1        0.2103
     19 S          19.4880   21.0880   16.7480 S.O2    1  LIG1        2.1808
     20 O          18.9630   22.4320   16.5270 O.2     1  LIG1       -0.9610
     21 O          18.9870   20.3260   17.8870 O.2     1  LIG1       -0.9597
     22 C          19.2640   20.1350   15.2690 C.3     1  LIG1       -0.7279
     23 H          18.1910   20.0190   15.1000 H       1  LIG1        0.2447
     24 H          19.7260   19.1560   15.4030 H       1  LIG1        0.1952
     25 H          19.7160   20.6680   14.4310 H       1  LIG1        0.1911
     26 C          26.1810   22.7070   15.1300 C.ar    1  LIG1        0.3209
     27 C          26.4410   24.0680   14.9080 C.ar    1  LIG1       -0.3972
     28 H          26.7910   24.6990   15.7240 H       1  LIG1        0.2374
     29 C          26.2520   24.6310   13.6430 C.ar    1  LIG1        0.3107
     30 H          26.4510   25.6890   13.4910 H       1  LIG1        0.0709
     31 C          25.8140   23.8320   12.5880 C.ar    1  LIG1       -0.6595
     32 C          25.5700   22.4750   12.7870 C.ar    1  LIG1        0.2319
     33 H          25.2380   21.8460   11.9650 H       1  LIG1        0.0858
     34 C          25.7600   21.9120   14.0530 C.ar    1  LIG1       -0.3191
     35 H          25.5790   20.8470   14.1880 H       1  LIG1        0.1672
     36 CL         25.5810   24.5250   11.0300 Cl      1  LIG1        0.1391
@<TRIPOS>BOND
     1     1     2   ar
     2     2     3   ar
     3     3     4    1
     4     3     5   ar
     5     5     6   ar
     6     6     1   ar
     7     5     7    1
     8     7     8    3
     9     2     9    1
    10     9    10   ar
    11    10    11    1
    12    10    12   ar
    13    12    13    1
    14    12    14   ar
    15    14    15   ar
    16    15    16    1
    17    15    17   ar
    18    17    18    1
    19    17     9   ar
    20    14    19    1
    21    19    20    2
    22    19    21    2
    23    19    22    1
    24    22    23    1
    25    22    24    1
    26    22    25    1
    27     1    26    1
    28    26    27   ar
    29    27    28    1
    30    27    29   ar
    31    29    30    1
    32    29    31   ar
    33    31    32   ar
    34    32    33    1
    35    32    34   ar
    36    34    35    1
    37    34    26   ar
    38    31    36    1
