@<TRIPOS>MOLECULE
4_75
 37 39 0 0 0
SMALL
USER_CHARGES
****
From 3DB ct
@<TRIPOS>ATOM
      1 C          26.3980   22.1520   16.4830 C.ar    1  LIG1        0.5443
      2 N          25.4710   21.4530   17.2540 N.ar    1  LIG1       -0.3599
      3 C          26.2080   20.8470   18.2550 C.ar    1  LIG1       -0.1207
      4 H          25.7560   20.2120   19.0050 H       1  LIG1        0.2853
      5 C          27.5080   21.2990   18.1420 C.ar    1  LIG1       -0.2803
      6 N          27.6030   22.1270   17.0350 N.ar    1  LIG1       -0.4434
      7 C          28.6830   20.9950   19.0270 C.3     1  LIG1        1.5051
      8 F          28.3840   20.1010   20.0140 F       1  LIG1       -0.4828
      9 F          29.1620   22.1100   19.6520 F       1  LIG1       -0.4303
     10 F          29.7300   20.4610   18.3320 F       1  LIG1       -0.4417
     11 C          24.0520   21.3710   17.1190 C.ar    1  LIG1        0.2975
     12 C          23.3520   22.2600   16.2900 C.ar    1  LIG1       -0.1808
     13 H          23.8490   23.0620   15.7510 H       1  LIG1        0.1827
     14 C          21.9590   22.1760   16.1760 C.ar    1  LIG1       -0.0387
     15 H          21.4350   22.8770   15.5280 H       1  LIG1        0.1990
     16 C          21.2590   21.2140   16.9060 C.ar    1  LIG1       -0.4987
     17 C          21.9410   20.3290   17.7420 C.ar    1  LIG1       -0.0197
     18 H          21.4050   19.5710   18.3090 H       1  LIG1        0.1976
     19 C          23.3330   20.4140   17.8550 C.ar    1  LIG1       -0.2630
     20 H          23.8310   19.6950   18.5030 H       1  LIG1        0.2090
     21 S          19.4920   21.0980   16.7440 S.O2    1  LIG1        2.1828
     22 O          18.9700   22.4440   16.5350 O.2     1  LIG1       -0.9575
     23 O          18.9900   20.3260   17.8770 O.2     1  LIG1       -0.9578
     24 C          19.2670   20.1560   15.2580 C.3     1  LIG1       -0.7566
     25 H          18.1940   20.0440   15.0880 H       1  LIG1        0.2513
     26 H          19.7270   19.1750   15.3850 H       1  LIG1        0.2003
     27 H          19.7220   20.6940   14.4240 H       1  LIG1        0.2044
     28 C          26.1840   22.7720   15.1450 C.ar    1  LIG1        0.1577
     29 N          26.4410   24.1180   14.9240 N.ar    1  LIG1       -0.4660
     30 C          26.2010   24.4160   13.6630 C.ar    1  LIG1        0.2583
     31 S          25.6850   23.1030   12.6780 S.2     1  LIG1        0.2056
     32 C          25.7940   22.0570   14.0310 C.ar    1  LIG1       -0.5646
     33 H          25.5690   21.0030   13.9440 H       1  LIG1        0.3069
     34 C          26.3510   25.7730   13.0690 C.3     1  LIG1       -0.2331
     35 H          27.0960   25.7670   12.2670 H       1  LIG1        0.0989
     36 H          26.6800   26.4880   13.8300 H       1  LIG1        0.1148
     37 H          25.3980   26.1280   12.6630 H       1  LIG1        0.0942
@<TRIPOS>BOND
     1     1     2   ar
     2     2     3   ar
     3     3     4    1
     4     3     5   ar
     5     5     6   ar
     6     6     1   ar
     7     5     7    1
     8     7     8    1
     9     7     9    1
    10     7    10    1
    11     2    11    1
    12    11    12   ar
    13    12    13    1
    14    12    14   ar
    15    14    15    1
    16    14    16   ar
    17    16    17   ar
    18    17    18    1
    19    17    19   ar
    20    19    20    1
    21    19    11   ar
    22    16    21    1
    23    21    22    2
    24    21    23    2
    25    21    24    1
    26    24    25    1
    27    24    26    1
    28    24    27    1
    29     1    28    1
    30    28    29   ar
    31    29    30   ar
    32    30    31   ar
    33    31    32   ar
    34    32    33    1
    35    32    28   ar
    36    30    34    1
    37    34    35    1
    38    34    36    1
    39    34    37    1
