@<TRIPOS>MOLECULE
4_76
 36 38 0 0 0
SMALL
USER_CHARGES
****
From 3DB ct
@<TRIPOS>ATOM
      1 C          26.3970   22.1520   16.4830 C.ar    1  LIG1        0.5352
      2 N          25.4710   21.4530   17.2540 N.ar    1  LIG1       -0.3698
      3 C          26.2090   20.8460   18.2550 C.ar    1  LIG1       -0.1145
      4 H          25.7580   20.2100   19.0040 H       1  LIG1        0.2822
      5 C          27.5080   21.3000   18.1420 C.ar    1  LIG1       -0.2787
      6 N          27.6020   22.1280   17.0350 N.ar    1  LIG1       -0.4437
      7 C          28.6830   20.9970   19.0260 C.3     1  LIG1        1.5011
      8 F          28.3850   20.1050   20.0160 F       1  LIG1       -0.4823
      9 F          29.1630   22.1130   19.6490 F       1  LIG1       -0.4303
     10 F          29.7300   20.4630   18.3320 F       1  LIG1       -0.4400
     11 C          24.0510   21.3690   17.1190 C.ar    1  LIG1        0.3295
     12 C          23.3510   22.2590   16.2910 C.ar    1  LIG1       -0.2013
     13 H          23.8470   23.0620   15.7520 H       1  LIG1        0.1788
     14 C          21.9580   22.1750   16.1790 C.ar    1  LIG1        0.0210
     15 H          21.4280   22.8750   15.5360 H       1  LIG1        0.1960
     16 C          21.2570   21.2120   16.9090 C.ar    1  LIG1       -0.5805
     17 C          21.9410   20.3280   17.7450 C.ar    1  LIG1        0.0244
     18 H          21.4050   19.5710   18.3140 H       1  LIG1        0.2027
     19 C          23.3330   20.4120   17.8560 C.ar    1  LIG1       -0.2765
     20 H          23.8320   19.6930   18.5030 H       1  LIG1        0.2096
     21 S          19.4970   21.1010   16.7390 S.O2    1  LIG1        2.4564
     22 O          18.9530   22.4190   16.4650 O.2     1  LIG1       -0.9892
     23 O          18.9680   20.2970   17.8260 O.2     1  LIG1       -0.9899
     24 N          19.3360   20.2070   15.3320 N.3     1  LIG1       -1.2949
     25 H          18.8590   20.7460   14.6060 H       1  LIG1        0.4836
     26 H          18.8600   19.3190   15.5120 H       1  LIG1        0.4826
     27 C          26.1830   22.7720   15.1450 C.ar    1  LIG1        0.1777
     28 N          26.4390   24.1190   14.9240 N.ar    1  LIG1       -0.4761
     29 C          26.2010   24.4160   13.6620 C.ar    1  LIG1        0.2616
     30 S          25.6870   23.1030   12.6770 S.2     1  LIG1        0.2034
     31 C          25.7940   22.0570   14.0300 C.ar    1  LIG1       -0.5686
     32 H          25.5700   21.0030   13.9430 H       1  LIG1        0.3167
     33 C          26.3510   25.7730   13.0680 C.3     1  LIG1       -0.2256
     34 H          27.0930   25.7650   12.2630 H       1  LIG1        0.0946
     35 H          26.6850   26.4870   13.8280 H       1  LIG1        0.1127
     36 H          25.3980   26.1290   12.6660 H       1  LIG1        0.0924
@<TRIPOS>BOND
     1     1     2   ar
     2     2     3   ar
     3     3     4    1
     4     3     5   ar
     5     5     6   ar
     6     6     1   ar
     7     5     7    1
     8     7     8    1
     9     7     9    1
    10     7    10    1
    11     2    11    1
    12    11    12   ar
    13    12    13    1
    14    12    14   ar
    15    14    15    1
    16    14    16   ar
    17    16    17   ar
    18    17    18    1
    19    17    19   ar
    20    19    20    1
    21    19    11   ar
    22    16    21    1
    23    21    22    2
    24    21    23    2
    25    21    24    1
    26    24    25    1
    27    24    26    1
    28     1    27    1
    29    27    28   ar
    30    28    29   ar
    31    29    30   ar
    32    30    31   ar
    33    31    32    1
    34    31    27   ar
    35    29    33    1
    36    33    34    1
    37    33    35    1
    38    33    36    1
