@<TRIPOS>MOLECULE
4_78
 36 38 0 0 0
SMALL
USER_CHARGES
****
From 3DB ct
@<TRIPOS>ATOM
      1 C          26.4240   22.1550   16.5230 C.ar    1  LIG1        0.5309
      2 N          25.4810   21.4180   17.2420 N.ar    1  LIG1       -0.2613
      3 C          26.2030   20.7560   18.2210 C.ar    1  LIG1       -0.0934
      4 H          25.7380   20.0860   18.9310 H       1  LIG1        0.2740
      5 C          27.5070   21.2030   18.1510 C.ar    1  LIG1       -0.3119
      6 N          27.6210   22.0880   17.0930 N.ar    1  LIG1       -0.4540
      7 C          28.6680   20.8420   19.0320 C.3     1  LIG1        1.5009
      8 F          28.3480   19.9090   19.9750 F       1  LIG1       -0.4741
      9 F          29.1550   21.9220   19.7110 F       1  LIG1       -0.4349
     10 F          29.7150   20.3280   18.3240 F       1  LIG1       -0.4341
     11 C          24.0590   21.3500   17.1010 C.ar    1  LIG1        0.2997
     12 C          23.3660   22.2490   16.2770 C.ar    1  LIG1       -0.2290
     13 H          23.8710   23.0430   15.7320 H       1  LIG1        0.1786
     14 C          21.9720   22.1840   16.1680 C.ar    1  LIG1        0.0804
     15 H          21.4510   22.8910   15.5260 H       1  LIG1        0.1891
     16 C          21.2610   21.2280   16.8960 C.ar    1  LIG1       -0.6103
     17 C          21.9350   20.3320   17.7270 C.ar    1  LIG1        0.0326
     18 H          21.3910   19.5800   18.2940 H       1  LIG1        0.1960
     19 C          23.3290   20.4000   17.8350 C.ar    1  LIG1       -0.2446
     20 H          23.8180   19.6710   18.4790 H       1  LIG1        0.1953
     21 S          19.5000   21.1380   16.7280 S.O2    1  LIG1        2.4629
     22 O          18.9710   22.4630   16.4560 O.2     1  LIG1       -0.9966
     23 O          18.9620   20.3390   17.8150 O.2     1  LIG1       -0.9912
     24 N          19.3250   20.2480   15.3200 N.3     1  LIG1       -1.3091
     25 H          18.8550   20.7950   14.5940 H       1  LIG1        0.4885
     26 H          18.8370   19.3670   15.4990 H       1  LIG1        0.4885
     27 C          26.2130   22.8140   15.2600 C.ar    1  LIG1       -0.0841
     28 S          26.5090   24.4970   15.0670 S.2     1  LIG1        0.3329
     29 C          26.0620   24.3790   13.4180 C.ar    1  LIG1       -0.5423
     30 H          26.0640   25.2450   12.7700 H       1  LIG1        0.3118
     31 C          25.7330   23.0740   13.1060 C.ar    1  LIG1        0.3628
     32 N          25.8340   22.1830   14.1650 N.ar    1  LIG1       -0.4331
     33 C          25.2950   22.5620   11.7810 C.3     1  LIG1       -0.4208
     34 H          25.9110   21.7080   11.4830 H       1  LIG1        0.1448
     35 H          25.3800   23.3310   11.0070 H       1  LIG1        0.1089
     36 H          24.2510   22.2370   11.8300 H       1  LIG1        0.1463
@<TRIPOS>BOND
     1     1     2   ar
     2     2     3   ar
     3     3     4    1
     4     3     5   ar
     5     5     6   ar
     6     6     1   ar
     7     5     7    1
     8     7     8    1
     9     7     9    1
    10     7    10    1
    11     2    11    1
    12    11    12   ar
    13    12    13    1
    14    12    14   ar
    15    14    15    1
    16    14    16   ar
    17    16    17   ar
    18    17    18    1
    19    17    19   ar
    20    19    20    1
    21    19    11   ar
    22    16    21    1
    23    21    22    2
    24    21    23    2
    25    21    24    1
    26    24    25    1
    27    24    26    1
    28     1    27    1
    29    27    28   ar
    30    28    29   ar
    31    29    30    1
    32    29    31   ar
    33    31    32   ar
    34    32    27   ar
    35    31    33    1
    36    33    34    1
    37    33    35    1
    38    33    36    1
