@<TRIPOS>MOLECULE
5_1l
 42 44 0 0 0
SMALL
USER_CHARGES
****
From 3DB ct
@<TRIPOS>ATOM
      1 C          26.3960   22.0940   16.4440 C.2     1  LIG1        0.3012
      2 C          25.5100   21.5080   17.2720 C.2     1  LIG1       -0.2761
      3 C          26.2060   20.9040   18.4600 C.3     1  LIG1       -0.0586
      4 H          25.8750   19.8890   18.6990 H       1  LIG1        0.0566
      5 H          26.0640   21.5380   19.3420 H       1  LIG1        0.0802
      6 C          27.6700   20.8900   18.0230 C.3     1  LIG1       -0.1505
      7 H          27.9130   19.9180   17.5730 H       1  LIG1        0.0685
      8 H          28.3540   21.0390   18.8650 H       1  LIG1        0.0581
      9 C          27.7970   21.9900   16.9740 C.3     1  LIG1       -0.1447
     10 H          28.1140   22.9300   17.4370 H       1  LIG1        0.0878
     11 H          28.5220   21.7090   16.2030 H       1  LIG1        0.0710
     12 C          24.0540   21.4000   17.1180 C.ar    1  LIG1        0.2962
     13 C          23.3540   22.2770   16.2740 C.ar    1  LIG1       -0.2521
     14 H          23.8830   23.0520   15.7210 H       1  LIG1        0.1673
     15 C          21.9660   22.1860   16.1350 C.ar    1  LIG1       -0.0134
     16 H          21.4490   22.8760   15.4710 H       1  LIG1        0.1862
     17 C          21.2640   21.2180   16.8540 C.ar    1  LIG1       -0.5142
     18 C          21.9400   20.3340   17.6960 C.ar    1  LIG1        0.0010
     19 H          21.4040   19.5700   18.2550 H       1  LIG1        0.1736
     20 C          23.3290   20.4330   17.8290 C.ar    1  LIG1       -0.3249
     21 H          23.8390   19.7290   18.4850 H       1  LIG1        0.2196
     22 S          19.5000   21.0890   16.6650 S.O2    1  LIG1        2.1822
     23 O          18.9780   22.4220   16.3810 O.2     1  LIG1       -0.9719
     24 O          18.9780   20.3710   17.8240 O.2     1  LIG1       -0.9723
     25 C          19.3050   20.0780   15.2220 C.3     1  LIG1       -0.7205
     26 H          18.2360   19.9560   15.0360 H       1  LIG1        0.2364
     27 H          19.7640   19.1040   15.4040 H       1  LIG1        0.1880
     28 H          19.7750   20.5760   14.3720 H       1  LIG1        0.1863
     29 C          26.1430   22.7330   15.1480 C.ar    1  LIG1       -0.3766
     30 C          26.3580   24.1100   14.9200 C.ar    1  LIG1        0.2914
     31 C          26.1210   24.6340   13.6370 C.ar    1  LIG1       -0.5361
     32 H          26.2900   25.6880   13.4260 H       1  LIG1        0.2608
     33 C          25.6570   23.8130   12.6160 C.ar    1  LIG1        0.6206
     34 C          25.4260   22.4640   12.8350 C.ar    1  LIG1       -0.4543
     35 H          25.0630   21.8350   12.0270 H       1  LIG1        0.2378
     36 C          25.6710   21.9250   14.0980 C.ar    1  LIG1        0.0315
     37 H          25.4950   20.8620   14.2580 H       1  LIG1        0.1349
     38 F          25.4300   24.3340   11.4030 F       1  LIG1       -0.3705
     39 C          26.8560   25.0390   15.9930 C.3     1  LIG1       -0.1739
     40 H          26.6290   26.0820   15.7480 H       1  LIG1        0.0638
     41 H          27.9400   24.9430   16.1010 H       1  LIG1        0.0575
     42 H          26.3710   24.8310   16.9530 H       1  LIG1        0.0521
@<TRIPOS>BOND
     1     1     2    2
     2     2     3    1
     3     3     4    1
     4     3     5    1
     5     3     6    1
     6     6     7    1
     7     6     8    1
     8     6     9    1
     9     9    10    1
    10     9    11    1
    11     9     1    1
    12     2    12    1
    13    12    13   ar
    14    13    14    1
    15    13    15   ar
    16    15    16    1
    17    15    17   ar
    18    17    18   ar
    19    18    19    1
    20    18    20   ar
    21    20    21    1
    22    20    12   ar
    23    17    22    1
    24    22    23    2
    25    22    24    2
    26    22    25    1
    27    25    26    1
    28    25    27    1
    29    25    28    1
    30     1    29    1
    31    29    30   ar
    32    30    31   ar
    33    31    32    1
    34    31    33   ar
    35    33    34   ar
    36    34    35    1
    37    34    36   ar
    38    36    37    1
    39    36    29   ar
    40    33    38    1
    41    30    39    1
    42    39    40    1
    43    39    41    1
    44    39    42    1
