@<TRIPOS>MOLECULE
5_7a
 45 47 0 0 0
SMALL
USER_CHARGES
****
From 3DB ct
@<TRIPOS>ATOM
      1 C          26.3810   22.0720   16.4150 C.2     1  LIG1        0.0549
      2 C          25.4940   21.4990   17.2540 C.2     1  LIG1       -0.2227
      3 C          26.1810   20.9470   18.4770 C.3     1  LIG1       -0.2394
      4 H          25.8250   19.9520   18.7600 H       1  LIG1        0.0883
      5 H          26.0120   21.6250   19.3230 H       1  LIG1        0.1083
      6 C          27.6650   20.9100   18.0560 C.3     1  LIG1        0.4398
      7 C          27.7720   22.0230   16.9950 C.3     1  LIG1       -0.3100
      8 H          28.0210   22.9920   17.4450 H       1  LIG1        0.1137
      9 H          28.5280   21.7860   16.2380 H       1  LIG1        0.1065
     10 C          28.0120   19.5410   17.4360 C.3     1  LIG1       -0.2784
     11 H          29.0510   19.5210   17.0870 H       1  LIG1        0.0673
     12 H          27.3710   19.3030   16.5800 H       1  LIG1        0.0566
     13 H          27.8930   18.7370   18.1710 H       1  LIG1        0.0694
     14 C          28.5960   21.1690   19.2430 C.3     1  LIG1       -0.4613
     15 H          29.6440   21.1800   18.9260 H       1  LIG1        0.1064
     16 H          28.4810   20.3950   20.0100 H       1  LIG1        0.1045
     17 H          28.3820   22.1360   19.7130 H       1  LIG1        0.1054
     18 C          24.0380   21.3870   17.1170 C.ar    1  LIG1        0.3395
     19 C          23.3300   22.2620   16.2790 C.ar    1  LIG1       -0.2685
     20 H          23.8560   23.0320   15.7150 H       1  LIG1        0.1696
     21 C          21.9400   22.1690   16.1550 C.ar    1  LIG1       -0.0240
     22 H          21.4150   22.8570   15.4960 H       1  LIG1        0.1928
     23 C          21.2480   21.2010   16.8850 C.ar    1  LIG1       -0.5214
     24 C          21.9350   20.3200   17.7220 C.ar    1  LIG1       -0.0112
     25 H          21.4050   19.5550   18.2870 H       1  LIG1        0.1795
     26 C          23.3250   20.4200   17.8390 C.ar    1  LIG1       -0.3084
     27 H          23.8460   19.7200   18.4910 H       1  LIG1        0.2061
     28 S          19.4830   21.0690   16.7180 S.O2    1  LIG1        2.1899
     29 O          18.9460   22.4130   16.5270 O.2     1  LIG1       -0.9723
     30 O          18.9850   20.2750   17.8360 O.2     1  LIG1       -0.9725
     31 C          19.2710   20.1490   15.2170 C.3     1  LIG1       -0.7342
     32 H          18.2000   20.0270   15.0420 H       1  LIG1        0.2384
     33 H          19.7420   19.1710   15.3290 H       1  LIG1        0.1923
     34 H          19.7210   20.7050   14.3920 H       1  LIG1        0.1903
     35 C          26.1530   22.7000   15.1080 C.ar    1  LIG1       -0.0061
     36 C          26.4180   24.0650   14.9210 C.ar    1  LIG1       -0.1010
     37 H          26.7700   24.6820   15.7470 H       1  LIG1        0.1736
     38 C          26.2200   24.6660   13.6750 C.ar    1  LIG1       -0.3848
     39 H          26.4190   25.7250   13.5360 H       1  LIG1        0.2276
     40 C          25.7650   23.9000   12.6090 C.ar    1  LIG1        0.5739
     41 C          25.5080   22.5450   12.7650 C.ar    1  LIG1       -0.4086
     42 H          25.1590   21.9570   11.9210 H       1  LIG1        0.2334
     43 C          25.7060   21.9450   14.0120 C.ar    1  LIG1       -0.0819
     44 H          25.5160   20.8780   14.1140 H       1  LIG1        0.1470
     45 F          25.5750   24.4760   11.4150 F       1  LIG1       -0.3683
@<TRIPOS>BOND
     1     1     2    2
     2     2     3    1
     3     3     4    1
     4     3     5    1
     5     3     6    1
     6     6     7    1
     7     7     8    1
     8     7     9    1
     9     7     1    1
    10     6    10    1
    11    10    11    1
    12    10    12    1
    13    10    13    1
    14     6    14    1
    15    14    15    1
    16    14    16    1
    17    14    17    1
    18     2    18    1
    19    18    19   ar
    20    19    20    1
    21    19    21   ar
    22    21    22    1
    23    21    23   ar
    24    23    24   ar
    25    24    25    1
    26    24    26   ar
    27    26    27    1
    28    26    18   ar
    29    23    28    1
    30    28    29    2
    31    28    30    2
    32    28    31    1
    33    31    32    1
    34    31    33    1
    35    31    34    1
    36     1    35    1
    37    35    36   ar
    38    36    37    1
    39    36    38   ar
    40    38    39    1
    41    38    40   ar
    42    40    41   ar
    43    41    42    1
    44    41    43   ar
    45    43    44    1
    46    43    35   ar
    47    40    45    1
