@<TRIPOS>MOLECULE
6_8m
 46 48 0 0 0
SMALL
USER_CHARGES
****
From 3DB ct
@<TRIPOS>ATOM
      1 C          26.3820   22.0710   16.4160 C.2     1  LIG1        0.0761
      2 C          25.4950   21.4970   17.2540 C.2     1  LIG1       -0.1703
      3 C          26.1800   20.9420   18.4740 C.3     1  LIG1       -0.0689
      4 H          25.8660   19.9270   18.7310 H       1  LIG1        0.0468
      5 H          26.0020   21.5950   19.3360 H       1  LIG1        0.0738
      6 C          27.6510   20.9540   18.0720 C.3     1  LIG1       -0.0700
      7 H          27.9290   19.9760   17.6560 H       1  LIG1        0.0583
      8 H          28.3120   21.1460   18.9220 H       1  LIG1        0.0329
      9 C          27.7710   22.0250   16.9930 C.3     1  LIG1       -0.1761
     10 H          28.0400   22.9920   17.4320 H       1  LIG1        0.1189
     11 H          28.5280   21.7440   16.2540 H       1  LIG1        0.0693
     12 C          24.0370   21.3870   17.1190 C.ar    1  LIG1        0.2485
     13 C          23.3290   22.2630   16.2820 C.ar    1  LIG1       -0.2246
     14 H          23.8530   23.0340   15.7190 H       1  LIG1        0.1431
     15 C          21.9390   22.1700   16.1610 C.ar    1  LIG1        0.0448
     16 H          21.4090   22.8570   15.5050 H       1  LIG1        0.1821
     17 C          21.2450   21.2010   16.8900 C.ar    1  LIG1       -0.5987
     18 C          21.9330   20.3220   17.7270 C.ar    1  LIG1        0.0351
     19 H          21.4040   19.5590   18.2940 H       1  LIG1        0.1782
     20 C          23.3240   20.4220   17.8430 C.ar    1  LIG1       -0.3023
     21 H          23.8440   19.7220   18.4970 H       1  LIG1        0.2104
     22 S          19.4880   21.0690   16.7090 S.O2    1  LIG1        2.4421
     23 O          18.9310   22.3770   16.4130 O.2     1  LIG1       -0.9979
     24 O          18.9580   20.2740   17.8030 O.2     1  LIG1       -0.9968
     25 N          19.3450   20.1540   15.3130 N.3     1  LIG1       -1.3072
     26 H          18.8690   20.6790   14.5750 H       1  LIG1        0.4815
     27 H          18.8750   19.2650   15.5010 H       1  LIG1        0.4843
     28 C          26.1530   22.7010   15.1100 C.ar    1  LIG1       -0.1197
     29 C          26.4180   24.0610   14.9190 C.ar    1  LIG1        0.2237
     30 H          26.7770   24.6680   15.7470 H       1  LIG1        0.0673
     31 C          26.2170   24.6610   13.6680 C.ar    1  LIG1       -0.7477
     32 C          25.7520   23.9210   12.5590 C.ar    1  LIG1        0.9140
     33 C          25.5090   22.5540   12.7640 C.ar    1  LIG1       -0.4690
     34 H          25.1400   21.9280   11.9540 H       1  LIG1        0.2128
     35 C          25.7090   21.9530   14.0150 C.ar    1  LIG1       -0.0536
     36 H          25.5150   20.8860   14.1150 H       1  LIG1        0.1506
     37 N          25.5220   24.5130   11.3110 N.pl3   1  LIG1       -0.7797
     38 C          26.6730   24.7960   10.4540 C.3     1  LIG1        0.0635
     39 H          26.3880   25.5050    9.6680 H       1  LIG1        0.0881
     40 H          27.0440   23.8870    9.9690 H       1  LIG1        0.0314
     41 H          27.4860   25.2570   11.0260 H       1  LIG1        0.0517
     42 C          24.3030   24.0710   10.6290 C.3     1  LIG1       -0.0245
     43 H          24.0890   24.7250    9.7770 H       1  LIG1        0.1184
     44 H          23.4270   24.0960   11.2850 H       1  LIG1        0.0648
     45 H          24.4240   23.0490   10.2530 H       1  LIG1        0.0576
     46 CL         26.6210   26.3430   13.5250 Cl      1  LIG1        0.1369
@<TRIPOS>BOND
     1     1     2    2
     2     2     3    1
     3     3     4    1
     4     3     5    1
     5     3     6    1
     6     6     7    1
     7     6     8    1
     8     6     9    1
     9     9    10    1
    10     9    11    1
    11     9     1    1
    12     2    12    1
    13    12    13   ar
    14    13    14    1
    15    13    15   ar
    16    15    16    1
    17    15    17   ar
    18    17    18   ar
    19    18    19    1
    20    18    20   ar
    21    20    21    1
    22    20    12   ar
    23    17    22    1
    24    22    23    2
    25    22    24    2
    26    22    25    1
    27    25    26    1
    28    25    27    1
    29     1    28    1
    30    28    29   ar
    31    29    30    1
    32    29    31   ar
    33    31    32   ar
    34    32    33   ar
    35    33    34    1
    36    33    35   ar
    37    35    36    1
    38    35    28   ar
    39    32    37    1
    40    37    38    1
    41    38    39    1
    42    38    40    1
    43    38    41    1
    44    37    42    1
    45    42    43    1
    46    42    44    1
    47    42    45    1
    48    31    46    1
