@<TRIPOS>MOLECULE
7_20h
 46 48 0 0 0
SMALL
USER_CHARGES
****
From 3DB ct
@<TRIPOS>ATOM
      1 C          26.5060   22.0540   16.4730 C.ar    1  LIG1        0.1710
      2 C          25.6050   21.4680   17.4030 C.ar    1  LIG1       -0.2352
      3 C          24.1590   21.3940   17.1450 C.ar    1  LIG1        0.4076
      4 C          23.5320   22.2960   16.2680 C.ar    1  LIG1       -0.3236
      5 H          24.1190   23.0600   15.7580 H       1  LIG1        0.2044
      6 C          22.1540   22.2270   16.0400 C.ar    1  LIG1        0.0101
      7 H          21.6890   22.9480   15.3690 H       1  LIG1        0.1886
      8 C          21.3940   21.2510   16.6890 C.ar    1  LIG1       -0.5261
      9 C          22.0020   20.3400   17.5530 C.ar    1  LIG1       -0.0236
     10 H          21.4210   19.5770   18.0660 H       1  LIG1        0.1854
     11 C          23.3780   20.4170   17.7800 C.ar    1  LIG1       -0.3225
     12 H          23.8420   19.7050   18.4660 H       1  LIG1        0.2035
     13 S          19.6300   21.2310   16.4800 S.O2    1  LIG1        2.2037
     14 O          19.2360   22.5530   15.9980 O.2     1  LIG1       -0.9750
     15 O          19.0300   20.7370   17.7150 O.2     1  LIG1       -0.9762
     16 C          19.3430   20.0370   15.2010 C.3     1  LIG1       -0.7315
     17 H          18.2620   19.9320   15.0860 H       1  LIG1        0.2391
     18 H          19.7700   19.0780   15.5000 H       1  LIG1        0.1946
     19 H          19.7870   20.3900   14.2680 H       1  LIG1        0.1922
     20 C          26.1080   20.9090   18.5970 C.ar    1  LIG1       -0.2605
     21 H          25.4420   20.4430   19.3170 H       1  LIG1        0.2312
     22 C          27.4720   20.9320   18.8630 C.ar    1  LIG1        0.3209
     23 C          28.3510   21.5080   17.9570 C.ar    1  LIG1        0.3839
     24 C          27.8800   22.0590   16.7700 C.ar    1  LIG1       -0.4037
     25 H          28.5950   22.4950   16.0760 H       1  LIG1        0.2673
     26 F          29.6640   21.5380   18.2250 F       1  LIG1       -0.3120
     27 F          27.9370   20.3860   19.9970 F       1  LIG1       -0.3065
     28 C          26.0470   22.6550   15.2070 C.ar    1  LIG1       -0.1155
     29 C          26.2700   24.0140   14.9330 C.ar    1  LIG1       -0.3218
     30 H          26.8040   24.6170   15.6630 H       1  LIG1        0.2113
     31 C          25.8230   24.5820   13.7340 C.ar    1  LIG1        0.2277
     32 C          25.1800   23.7870   12.7680 C.ar    1  LIG1        0.3031
     33 C          24.9650   22.4330   13.0320 C.ar    1  LIG1       -0.3728
     34 H          24.4650   21.7780   12.3210 H       1  LIG1        0.2154
     35 C          25.3880   21.8770   14.2440 C.ar    1  LIG1       -0.0335
     36 H          25.1970   20.8210   14.4280 H       1  LIG1        0.1460
     37 O          24.7990   24.4290   11.6160 O.3     1  LIG1       -0.3980
     38 C          25.1010   25.8200   11.5180 C.3     1  LIG1        0.0943
     39 H          24.8290   26.1520   10.5100 H       1  LIG1        0.0714
     40 H          26.1740   26.0030   11.6480 H       1  LIG1        0.0446
     41 H          24.5090   26.4020   12.2330 H       1  LIG1        0.0401
     42 O          26.0170   25.9070   13.4220 O.3     1  LIG1       -0.3331
     43 C          26.6760   26.6690   14.4390 C.3     1  LIG1       -0.0555
     44 H          26.4480   27.7230   14.2500 H       1  LIG1        0.1085
     45 H          27.7610   26.5350   14.3730 H       1  LIG1        0.0827
     46 H          26.3080   26.4200   15.4430 H       1  LIG1        0.0781
@<TRIPOS>BOND
     1     1     2   ar
     2     2     3    1
     3     3     4   ar
     4     4     5    1
     5     4     6   ar
     6     6     7    1
     7     6     8   ar
     8     8     9   ar
     9     9    10    1
    10     9    11   ar
    11    11    12    1
    12    11     3   ar
    13     8    13    1
    14    13    14    2
    15    13    15    2
    16    13    16    1
    17    16    17    1
    18    16    18    1
    19    16    19    1
    20     2    20   ar
    21    20    21    1
    22    20    22   ar
    23    22    23   ar
    24    23    24   ar
    25    24    25    1
    26    24     1   ar
    27    23    26    1
    28    22    27    1
    29     1    28    1
    30    28    29   ar
    31    29    30    1
    32    29    31   ar
    33    31    32   ar
    34    32    33   ar
    35    33    34    1
    36    33    35   ar
    37    35    36    1
    38    35    28   ar
    39    32    37    1
    40    37    38    1
    41    38    39    1
    42    38    40    1
    43    38    41    1
    44    31    42    1
    45    42    43    1
    46    43    44    1
    47    43    45    1
    48    43    46    1
