@<TRIPOS>MOLECULE
7_20j
 41 44 0 0 0
SMALL
USER_CHARGES
****
From 3DB ct
@<TRIPOS>ATOM
      1 C          26.5000   22.0800   16.4780 C.ar    1  LIG1        0.1359
      2 C          25.6090   21.4230   17.3760 C.ar    1  LIG1       -0.2253
      3 C          24.1490   21.3670   17.1580 C.ar    1  LIG1        0.4066
      4 C          23.5200   22.2790   16.2910 C.ar    1  LIG1       -0.3269
      5 H          24.1080   23.0340   15.7730 H       1  LIG1        0.2080
      6 C          22.1390   22.2370   16.0780 C.ar    1  LIG1        0.0037
      7 H          21.6830   22.9510   15.3960 H       1  LIG1        0.1906
      8 C          21.3690   21.2870   16.7470 C.ar    1  LIG1       -0.5264
      9 C          21.9670   20.3750   17.6190 C.ar    1  LIG1       -0.0133
     10 H          21.3750   19.6300   18.1450 H       1  LIG1        0.1892
     11 C          23.3510   20.4200   17.8230 C.ar    1  LIG1       -0.3333
     12 H          23.8040   19.7010   18.5060 H       1  LIG1        0.2053
     13 S          19.6140   21.2220   16.4500 S.O2    1  LIG1        2.1969
     14 O          19.2050   22.4940   15.8640 O.2     1  LIG1       -0.9717
     15 O          18.9680   20.7820   17.6840 O.2     1  LIG1       -0.9731
     16 C          19.4410   19.9500   15.2300 C.3     1  LIG1       -0.7201
     17 H          18.3780   19.8290   15.0120 H       1  LIG1        0.2361
     18 H          19.8460   19.0180   15.6290 H       1  LIG1        0.1895
     19 H          19.9750   20.2540   14.3270 H       1  LIG1        0.1878
     20 C          26.1310   20.8330   18.5470 C.ar    1  LIG1       -0.2636
     21 H          25.4770   20.3230   19.2500 H       1  LIG1        0.2338
     22 C          27.4850   20.9130   18.8390 C.ar    1  LIG1        0.3270
     23 C          28.3480   21.5740   17.9800 C.ar    1  LIG1        0.3847
     24 C          27.8690   22.1510   16.8090 C.ar    1  LIG1       -0.3930
     25 H          28.5760   22.6480   16.1500 H       1  LIG1        0.2688
     26 F          29.6530   21.6590   18.2730 F       1  LIG1       -0.3122
     27 F          27.9560   20.3490   19.9620 F       1  LIG1       -0.3059
     28 C          26.0570   22.6760   15.1980 C.ar    1  LIG1       -0.0163
     29 C          26.2730   24.0420   14.9320 C.ar    1  LIG1       -0.3463
     30 H          26.7590   24.6880   15.6570 H       1  LIG1        0.2600
     31 C          25.8430   24.5520   13.7230 C.ar    1  LIG1        0.2277
     32 C          25.2230   23.7670   12.7810 C.ar    1  LIG1        0.2646
     33 C          24.9990   22.4250   12.9920 C.ar    1  LIG1       -0.3429
     34 H          24.5150   21.8080   12.2420 H       1  LIG1        0.2430
     35 C          25.4250   21.8810   14.2100 C.ar    1  LIG1       -0.1190
     36 H          25.2600   20.8200   14.3900 H       1  LIG1        0.1679
     37 O          24.8790   24.4640   11.6650 O.3     1  LIG1       -0.4077
     38 C          25.3210   25.7940   12.0250 C.3     1  LIG1        0.2766
     39 H          24.4500   26.4580   12.0440 H       1  LIG1        0.0976
     40 H          26.0250   26.1490   11.2630 H       1  LIG1        0.0997
     41 O          25.9710   25.8440   13.3170 O.3     1  LIG1       -0.4040
@<TRIPOS>BOND
     1     1     2   ar
     2     2     3    1
     3     3     4   ar
     4     4     5    1
     5     4     6   ar
     6     6     7    1
     7     6     8   ar
     8     8     9   ar
     9     9    10    1
    10     9    11   ar
    11    11    12    1
    12    11     3   ar
    13     8    13    1
    14    13    14    2
    15    13    15    2
    16    13    16    1
    17    16    17    1
    18    16    18    1
    19    16    19    1
    20     2    20   ar
    21    20    21    1
    22    20    22   ar
    23    22    23   ar
    24    23    24   ar
    25    24    25    1
    26    24     1   ar
    27    23    26    1
    28    22    27    1
    29     1    28    1
    30    28    29   ar
    31    29    30    1
    32    29    31   ar
    33    31    32   ar
    34    32    33   ar
    35    33    34    1
    36    33    35   ar
    37    35    36    1
    38    35    28   ar
    39    32    37    1
    40    37    38    1
    41    38    39    1
    42    38    40    1
    43    38    41    1
    44    41    31    1
