@<TRIPOS>MOLECULE
8_16a
 37 39 0 0 0
SMALL
USER_CHARGES
****
From 3DB ct
@<TRIPOS>ATOM
      1 C          21.2460   21.1930   16.9430 C.ar    1  LIG1       -0.6308
      2 C          21.9620   20.3260   17.7700 C.ar    1  LIG1        0.0609
      3 H          21.4480   19.5660   18.3560 H       1  LIG1        0.1816
      4 C          23.3540   20.4390   17.8520 C.ar    1  LIG1       -0.2448
      5 H          23.8870   19.7480   18.5060 H       1  LIG1        0.2007
      6 C          24.0450   21.4050   17.0950 C.ar    1  LIG1        0.3952
      7 C          23.3080   22.2750   16.2800 C.ar    1  LIG1       -0.3667
      8 H          23.7730   23.0790   15.7190 H       1  LIG1        0.1891
      9 C          21.9140   22.1650   16.1970 C.ar    1  LIG1        0.1190
     10 H          21.3630   22.8520   15.5580 H       1  LIG1        0.1738
     11 N          25.4700   21.4900   17.2150 N.ar    1  LIG1        0.0183
     12 C          26.4160   22.1450   16.4220 C.ar    1  LIG1       -0.0399
     13 C          26.2150   22.7300   15.0980 C.ar    1  LIG1        0.1655
     14 C          26.4730   24.0900   14.8820 C.ar    1  LIG1       -0.1728
     15 H          26.8030   24.7270   15.7010 H       1  LIG1        0.1697
     16 C          26.3020   24.6490   13.6140 C.ar    1  LIG1       -0.1546
     17 H          26.4980   25.7080   13.4560 H       1  LIG1        0.1579
     18 C          25.8820   23.8520   12.5500 C.ar    1  LIG1       -0.1128
     19 H          25.7500   24.2890   11.5620 H       1  LIG1        0.1503
     20 C          25.6390   22.4940   12.7510 C.ar    1  LIG1       -0.1579
     21 H          25.3180   21.8700   11.9190 H       1  LIG1        0.1597
     22 C          25.8100   21.9330   14.0180 C.ar    1  LIG1       -0.1975
     23 H          25.6240   20.8680   14.1530 H       1  LIG1        0.1706
     24 C          27.6110   22.0580   17.1140 C.ar    1  LIG1       -0.4362
     25 H          28.5640   22.4690   16.8050 H       1  LIG1        0.2644
     26 C          27.3530   21.2650   18.2450 C.ar    1  LIG1        0.2828
     27 N          26.0740   20.8710   18.2800 N.ar    1  LIG1       -0.4932
     28 C          28.3310   20.8370   19.2870 C.3     1  LIG1        0.2803
     29 H          29.3460   20.7790   18.8820 H       1  LIG1        0.0694
     30 H          28.0640   19.8580   19.6950 H       1  LIG1        0.0692
     31 F          28.3480   21.7310   20.3250 F       1  LIG1       -0.3802
     32 S          19.4860   21.0260   16.8240 S.O2    1  LIG1        2.4262
     33 O          18.9240   22.2850   16.3670 O.2     1  LIG1       -0.9936
     34 O          18.9780   20.3840   18.0230 O.2     1  LIG1       -0.9872
     35 N          19.3200   19.9230   15.5750 N.3     1  LIG1       -1.3107
     36 H          18.8170   20.3330   14.7840 H       1  LIG1        0.4854
     37 H          18.8660   19.0650   15.9000 H       1  LIG1        0.4889
@<TRIPOS>BOND
     1     1     2   ar
     2     2     3    1
     3     2     4   ar
     4     4     5    1
     5     4     6   ar
     6     6     7   ar
     7     7     8    1
     8     7     9   ar
     9     9    10    1
    10     9     1   ar
    11     6    11    1
    12    11    12   ar
    13    12    13    1
    14    13    14   ar
    15    14    15    1
    16    14    16   ar
    17    16    17    1
    18    16    18   ar
    19    18    19    1
    20    18    20   ar
    21    20    21    1
    22    20    22   ar
    23    22    23    1
    24    22    13   ar
    25    12    24   ar
    26    24    25    1
    27    24    26   ar
    28    26    27   ar
    29    27    11   ar
    30    26    28    1
    31    28    29    1
    32    28    30    1
    33    28    31    1
    34     1    32    1
    35    32    33    2
    36    32    34    2
    37    32    35    1
    38    35    36    1
    39    35    37    1
