@<TRIPOS>MOLECULE
8_1aa
 44 46 0 0 0
SMALL
USER_CHARGES
****
From 3DB ct
@<TRIPOS>ATOM
      1 C          21.2490   21.1820   16.9460 C.ar    1  LIG1       -0.6257
      2 C          21.9650   20.3190   17.7740 C.ar    1  LIG1        0.0546
      3 H          21.4590   19.5550   18.3600 H       1  LIG1        0.1900
      4 C          23.3570   20.4370   17.8550 C.ar    1  LIG1       -0.2081
      5 H          23.8920   19.7470   18.5080 H       1  LIG1        0.1849
      6 C          24.0470   21.4050   17.0990 C.ar    1  LIG1        0.3647
      7 C          23.3090   22.2730   16.2830 C.ar    1  LIG1       -0.3217
      8 H          23.7690   23.0790   15.7220 H       1  LIG1        0.1903
      9 C          21.9150   22.1570   16.2000 C.ar    1  LIG1        0.0950
     10 H          21.3580   22.8410   15.5620 H       1  LIG1        0.1795
     11 N          25.4720   21.4920   17.2190 N.ar    1  LIG1       -0.0806
     12 C          26.4170   22.1410   16.4220 C.ar    1  LIG1        0.2462
     13 C          26.2130   22.7240   15.0980 C.ar    1  LIG1       -0.0307
     14 C          26.4700   24.0840   14.8780 C.ar    1  LIG1       -0.3127
     15 H          26.8020   24.7040   15.7110 H       1  LIG1        0.2021
     16 C          26.2950   24.6650   13.6080 C.ar    1  LIG1        0.3268
     17 C          25.8700   23.8530   12.5390 C.ar    1  LIG1       -0.1558
     18 C          25.6250   22.4910   12.7590 C.ar    1  LIG1       -0.1685
     19 H          25.2910   21.8490   11.9450 H       1  LIG1        0.1905
     20 C          25.8010   21.9280   14.0250 C.ar    1  LIG1       -0.1697
     21 H          25.6110   20.8640   14.1620 H       1  LIG1        0.1765
     22 S          25.5980   24.5060   10.8940 S.3     1  LIG1       -0.0364
     23 C          25.0540   22.9800   10.0760 C.3     1  LIG1       -0.2466
     24 H          24.8620   23.1890    9.0210 H       1  LIG1        0.1393
     25 H          24.1320   22.6050   10.5290 H       1  LIG1        0.0974
     26 H          25.8310   22.2130   10.1430 H       1  LIG1        0.0841
     27 C          26.5710   26.1350   13.4400 C.3     1  LIG1       -0.3922
     28 H          27.3660   26.2930   12.7040 H       1  LIG1        0.1267
     29 H          26.9020   26.5910   14.3790 H       1  LIG1        0.1096
     30 H          25.6640   26.6600   13.1240 H       1  LIG1        0.1059
     31 C          27.6140   22.0510   17.1070 C.ar    1  LIG1       -0.4290
     32 H          28.5680   22.4570   16.7930 H       1  LIG1        0.2787
     33 C          27.3640   21.2630   18.2490 C.ar    1  LIG1       -0.1639
     34 N          26.0750   20.8780   18.2870 N.ar    1  LIG1       -0.2737
     35 C          28.3720   20.8460   19.2870 C.3     1  LIG1        1.5079
     36 F          29.5610   21.5060   19.1670 F       1  LIG1       -0.4596
     37 F          28.6670   19.5140   19.2180 F       1  LIG1       -0.4494
     38 F          27.9380   21.0770   20.5620 F       1  LIG1       -0.4532
     39 S          19.4880   21.0390   16.8090 S.O2    1  LIG1        2.4392
     40 O          18.9340   22.2970   16.3410 O.2     1  LIG1       -0.9942
     41 O          18.9750   20.4070   18.0110 O.2     1  LIG1       -0.9870
     42 N          19.3200   19.9420   15.5540 N.3     1  LIG1       -1.2993
     43 H          18.8390   20.3660   14.7560 H       1  LIG1        0.4815
     44 H          18.8450   19.0920   15.8680 H       1  LIG1        0.4866
@<TRIPOS>BOND
     1     1     2   ar
     2     2     3    1
     3     2     4   ar
     4     4     5    1
     5     4     6   ar
     6     6     7   ar
     7     7     8    1
     8     7     9   ar
     9     9    10    1
    10     9     1   ar
    11     6    11    1
    12    11    12   ar
    13    12    13    1
    14    13    14   ar
    15    14    15    1
    16    14    16   ar
    17    16    17   ar
    18    17    18   ar
    19    18    19    1
    20    18    20   ar
    21    20    21    1
    22    20    13   ar
    23    17    22    1
    24    22    23    1
    25    23    24    1
    26    23    25    1
    27    23    26    1
    28    16    27    1
    29    27    28    1
    30    27    29    1
    31    27    30    1
    32    12    31   ar
    33    31    32    1
    34    31    33   ar
    35    33    34   ar
    36    34    11   ar
    37    33    35    1
    38    35    36    1
    39    35    37    1
    40    35    38    1
    41     1    39    1
    42    39    40    2
    43    39    41    2
    44    39    42    1
    45    42    43    1
    46    42    44    1
