@<TRIPOS>MOLECULE
8_1j
 43 45 0 0 0
SMALL
USER_CHARGES
****
From 3DB ct
@<TRIPOS>ATOM
      1 C          21.2460   21.1840   16.9510 C.ar    1  LIG1       -0.6259
      2 C          21.9640   20.3190   17.7760 C.ar    1  LIG1        0.0520
      3 H          21.4580   19.5560   18.3640 H       1  LIG1        0.1894
      4 C          23.3560   20.4350   17.8530 C.ar    1  LIG1       -0.2025
      5 H          23.8920   19.7450   18.5050 H       1  LIG1        0.1862
      6 C          24.0440   21.4030   17.0960 C.ar    1  LIG1        0.3092
      7 C          23.3050   22.2710   16.2820 C.ar    1  LIG1       -0.2965
      8 H          23.7660   23.0780   15.7200 H       1  LIG1        0.1568
      9 C          21.9110   22.1570   16.2020 C.ar    1  LIG1        0.1162
     10 H          21.3540   22.8410   15.5660 H       1  LIG1        0.1733
     11 N          25.4700   21.4910   17.2150 N.ar    1  LIG1        0.0169
     12 C          26.4140   22.1450   16.4210 C.ar    1  LIG1        0.1087
     13 C          26.2140   22.7310   15.0980 C.ar    1  LIG1        0.0846
     14 C          26.4720   24.0900   14.8810 C.ar    1  LIG1       -0.1475
     15 H          26.8020   24.7270   15.7000 H       1  LIG1        0.1597
     16 C          26.3040   24.6490   13.6110 C.ar    1  LIG1       -0.1813
     17 H          26.5090   25.7100   13.4680 H       1  LIG1        0.1792
     18 C          25.8810   23.8580   12.5370 C.ar    1  LIG1       -0.0196
     19 C          25.6440   22.4940   12.7490 C.ar    1  LIG1       -0.1723
     20 H          25.3300   21.8550   11.9240 H       1  LIG1        0.1816
     21 C          25.8130   21.9340   14.0180 C.ar    1  LIG1       -0.2066
     22 H          25.6290   20.8690   14.1530 H       1  LIG1        0.1731
     23 C          25.7150   24.4580   11.1630 C.3     1  LIG1        0.0847
     24 H          25.3980   25.5040   11.2530 H       1  LIG1        0.0077
     25 H          24.9060   23.9420   10.6310 H       1  LIG1        0.0049
     26 C          26.9980   24.3770   10.3510 C.3     1  LIG1       -0.0688
     27 H          26.8470   24.8170    9.3600 H       1  LIG1        0.0189
     28 H          27.3180   23.3390   10.2150 H       1  LIG1        0.0222
     29 H          27.8130   24.9190   10.8420 H       1  LIG1        0.0224
     30 C          27.6100   22.0610   17.1130 C.ar    1  LIG1       -0.4012
     31 H          28.5620   22.4750   16.8030 H       1  LIG1        0.2628
     32 C          27.3610   21.2630   18.2480 C.ar    1  LIG1       -0.1491
     33 N          26.0740   20.8710   18.2790 N.ar    1  LIG1       -0.2975
     34 C          28.3660   20.8450   19.2870 C.3     1  LIG1        1.4883
     35 F          29.5790   21.4530   19.1270 F       1  LIG1       -0.4546
     36 F          28.6090   19.5010   19.2650 F       1  LIG1       -0.4453
     37 F          27.9600   21.1400   20.5580 F       1  LIG1       -0.4507
     38 S          19.4850   21.0370   16.8180 S.O2    1  LIG1        2.4237
     39 O          18.9410   22.2470   16.2270 O.2     1  LIG1       -0.9894
     40 O          18.9580   20.5270   18.0720 O.2     1  LIG1       -0.9829
     41 N          19.3180   19.8220   15.6770 N.3     1  LIG1       -1.3055
     42 H          18.8390   20.1660   14.8410 H       1  LIG1        0.4859
     43 H          18.8410   19.0080   16.0720 H       1  LIG1        0.4887
@<TRIPOS>BOND
     1     1     2   ar
     2     2     3    1
     3     2     4   ar
     4     4     5    1
     5     4     6   ar
     6     6     7   ar
     7     7     8    1
     8     7     9   ar
     9     9    10    1
    10     9     1   ar
    11     6    11    1
    12    11    12   ar
    13    12    13    1
    14    13    14   ar
    15    14    15    1
    16    14    16   ar
    17    16    17    1
    18    16    18   ar
    19    18    19   ar
    20    19    20    1
    21    19    21   ar
    22    21    22    1
    23    21    13   ar
    24    18    23    1
    25    23    24    1
    26    23    25    1
    27    23    26    1
    28    26    27    1
    29    26    28    1
    30    26    29    1
    31    12    30   ar
    32    30    31    1
    33    30    32   ar
    34    32    33   ar
    35    33    11   ar
    36    32    34    1
    37    34    35    1
    38    34    36    1
    39    34    37    1
    40     1    38    1
    41    38    39    2
    42    38    40    2
    43    38    41    1
    44    41    42    1
    45    41    43    1
