@<TRIPOS>MOLECULE
8_1q
 41 43 0 0 0
SMALL
USER_CHARGES
****
From 3DB ct
@<TRIPOS>ATOM
      1 C          21.2480   21.1840   16.9480 C.ar    1  LIG1       -0.6200
      2 C          21.9650   20.3190   17.7740 C.ar    1  LIG1        0.0651
      3 H          21.4570   19.5570   18.3610 H       1  LIG1        0.1863
      4 C          23.3570   20.4340   17.8540 C.ar    1  LIG1       -0.2090
      5 H          23.8910   19.7440   18.5060 H       1  LIG1        0.1874
      6 C          24.0460   21.4020   17.0970 C.ar    1  LIG1        0.2952
      7 C          23.3090   22.2710   16.2830 C.ar    1  LIG1       -0.2684
      8 H          23.7710   23.0780   15.7230 H       1  LIG1        0.1551
      9 C          21.9150   22.1580   16.2010 C.ar    1  LIG1        0.0868
     10 H          21.3580   22.8430   15.5640 H       1  LIG1        0.1803
     11 N          25.4720   21.4890   17.2160 N.ar    1  LIG1        0.0164
     12 C          26.4140   22.1470   16.4240 C.ar    1  LIG1        0.1136
     13 C          26.2130   22.7300   15.0990 C.ar    1  LIG1        0.1226
     14 C          26.4670   24.0890   14.8800 C.ar    1  LIG1       -0.2780
     15 H          26.7890   24.7300   15.6990 H       1  LIG1        0.1905
     16 C          26.2970   24.6470   13.6080 C.ar    1  LIG1       -0.0020
     17 H          26.4790   25.7120   13.4800 H       1  LIG1        0.1358
     18 C          25.8890   23.8520   12.5330 C.ar    1  LIG1       -0.0853
     19 C          25.6370   22.4940   12.7510 C.ar    1  LIG1       -0.1317
     20 H          25.3130   21.8510   11.9340 H       1  LIG1        0.1904
     21 C          25.8080   21.9340   14.0220 C.ar    1  LIG1       -0.2201
     22 H          25.6200   20.8700   14.1580 H       1  LIG1        0.1811
     23 S          25.6340   24.5190   10.8980 S.3     1  LIG1       -0.0541
     24 C          26.0930   26.2560   11.1720 C.3     1  LIG1       -0.2218
     25 H          26.1290   26.7680   10.2070 H       1  LIG1        0.1443
     26 H          27.0800   26.3240   11.6380 H       1  LIG1        0.0775
     27 H          25.3540   26.7610   11.7990 H       1  LIG1        0.0807
     28 C          27.6100   22.0650   17.1150 C.ar    1  LIG1       -0.4018
     29 H          28.5610   22.4810   16.8070 H       1  LIG1        0.2676
     30 C          27.3630   21.2630   18.2480 C.ar    1  LIG1       -0.1592
     31 N          26.0770   20.8660   18.2770 N.ar    1  LIG1       -0.2905
     32 C          28.3720   20.8420   19.2830 C.3     1  LIG1        1.4992
     33 F          29.5220   21.5780   19.2310 F       1  LIG1       -0.4578
     34 F          28.7490   19.5370   19.1390 F       1  LIG1       -0.4474
     35 F          27.9010   20.9670   20.5600 F       1  LIG1       -0.4523
     36 S          19.4880   21.0420   16.8140 S.O2    1  LIG1        2.4296
     37 O          18.9330   22.3000   16.3470 O.2     1  LIG1       -0.9910
     38 O          18.9740   20.4100   18.0150 O.2     1  LIG1       -0.9851
     39 N          19.3170   19.9450   15.5590 N.3     1  LIG1       -1.3019
     40 H          18.8310   20.3670   14.7640 H       1  LIG1        0.4841
     41 H          18.8450   19.0930   15.8750 H       1  LIG1        0.4875
@<TRIPOS>BOND
     1     1     2   ar
     2     2     3    1
     3     2     4   ar
     4     4     5    1
     5     4     6   ar
     6     6     7   ar
     7     7     8    1
     8     7     9   ar
     9     9    10    1
    10     9     1   ar
    11     6    11    1
    12    11    12   ar
    13    12    13    1
    14    13    14   ar
    15    14    15    1
    16    14    16   ar
    17    16    17    1
    18    16    18   ar
    19    18    19   ar
    20    19    20    1
    21    19    21   ar
    22    21    22    1
    23    21    13   ar
    24    18    23    1
    25    23    24    1
    26    24    25    1
    27    24    26    1
    28    24    27    1
    29    12    28   ar
    30    28    29    1
    31    28    30   ar
    32    30    31   ar
    33    31    11   ar
    34    30    32    1
    35    32    33    1
    36    32    34    1
    37    32    35    1
    38     1    36    1
    39    36    37    2
    40    36    38    2
    41    36    39    1
    42    39    40    1
    43    39    41    1
