@<TRIPOS>MOLECULE
8_1u
 45 47 0 0 0
SMALL
USER_CHARGES
****
From 3DB ct
@<TRIPOS>ATOM
      1 C          21.2430   21.1840   16.9490 C.ar    1  LIG1       -0.6291
      2 C          21.9620   20.3220   17.7760 C.ar    1  LIG1        0.0707
      3 H          21.4560   19.5590   18.3630 H       1  LIG1        0.1834
      4 C          23.3550   20.4410   17.8570 C.ar    1  LIG1       -0.2221
      5 H          23.8890   19.7530   18.5110 H       1  LIG1        0.1887
      6 C          24.0430   21.4110   17.1010 C.ar    1  LIG1        0.3322
      7 C          23.3020   22.2770   16.2870 C.ar    1  LIG1       -0.3067
      8 H          23.7600   23.0860   15.7270 H       1  LIG1        0.1729
      9 C          21.9090   22.1590   16.2020 C.ar    1  LIG1        0.1001
     10 H          21.3520   22.8410   15.5620 H       1  LIG1        0.1779
     11 N          25.4700   21.4960   17.2190 N.ar    1  LIG1        0.0006
     12 C          26.4180   22.1350   16.4180 C.ar    1  LIG1        0.1491
     13 C          26.2170   22.7280   15.0980 C.ar    1  LIG1       -0.0519
     14 C          26.4770   24.0810   14.8850 C.ar    1  LIG1       -0.0632
     15 H          26.8110   24.7170   15.7030 H       1  LIG1        0.1594
     16 C          26.3010   24.6490   13.6130 C.ar    1  LIG1       -0.3318
     17 H          26.5140   25.7120   13.5200 H       1  LIG1        0.1696
     18 C          25.8750   23.8950   12.5050 C.ar    1  LIG1        0.3434
     19 C          25.6420   22.5290   12.7460 C.ar    1  LIG1       -0.3314
     20 H          25.3150   21.8660   11.9480 H       1  LIG1        0.1743
     21 C          25.8120   21.9510   14.0150 C.ar    1  LIG1       -0.1080
     22 H          25.6210   20.8850   14.1360 H       1  LIG1        0.1692
     23 N          25.7020   24.4630   11.2490 N.pl3   1  LIG1       -0.3784
     24 C          25.8810   25.9000   11.0330 C.3     1  LIG1        0.0143
     25 H          25.6650   26.1870    9.9980 H       1  LIG1        0.0822
     26 H          26.9150   26.1970   11.2390 H       1  LIG1        0.0467
     27 H          25.2010   26.4760   11.6710 H       1  LIG1        0.0486
     28 C          25.2880   23.6560   10.0990 C.3     1  LIG1        0.0228
     29 H          25.2480   24.2480    9.1780 H       1  LIG1        0.0814
     30 H          24.2870   23.2410   10.2590 H       1  LIG1        0.0430
     31 H          25.9960   22.8400    9.9200 H       1  LIG1        0.0438
     32 C          27.6170   22.0360   17.1010 C.ar    1  LIG1       -0.4136
     33 H          28.5720   22.4350   16.7820 H       1  LIG1        0.2623
     34 C          27.3630   21.2580   18.2470 C.ar    1  LIG1       -0.1503
     35 N          26.0710   20.8880   18.2920 N.ar    1  LIG1       -0.3028
     36 C          28.3680   20.8420   19.2890 C.3     1  LIG1        1.4938
     37 F          28.0030   21.2260   20.5490 F       1  LIG1       -0.4535
     38 F          29.6080   21.3750   19.0740 F       1  LIG1       -0.4567
     39 F          28.5400   19.4870   19.3360 F       1  LIG1       -0.4476
     40 S          19.4840   21.0230   16.8130 S.O2    1  LIG1        2.4314
     41 O          18.9000   22.3280   16.5540 O.2     1  LIG1       -0.9940
     42 O          18.9950   20.2020   17.9060 O.2     1  LIG1       -0.9866
     43 N          19.3230   20.1260   15.4080 N.3     1  LIG1       -1.3050
     44 H          18.8180   20.6520   14.6910 H       1  LIG1        0.4835
     45 H          18.8750   19.2250   15.5960 H       1  LIG1        0.4876
@<TRIPOS>BOND
     1     1     2   ar
     2     2     3    1
     3     2     4   ar
     4     4     5    1
     5     4     6   ar
     6     6     7   ar
     7     7     8    1
     8     7     9   ar
     9     9    10    1
    10     9     1   ar
    11     6    11    1
    12    11    12   ar
    13    12    13    1
    14    13    14   ar
    15    14    15    1
    16    14    16   ar
    17    16    17    1
    18    16    18   ar
    19    18    19   ar
    20    19    20    1
    21    19    21   ar
    22    21    22    1
    23    21    13   ar
    24    18    23    1
    25    23    24    1
    26    24    25    1
    27    24    26    1
    28    24    27    1
    29    23    28    1
    30    28    29    1
    31    28    30    1
    32    28    31    1
    33    12    32   ar
    34    32    33    1
    35    32    34   ar
    36    34    35   ar
    37    35    11   ar
    38    34    36    1
    39    36    37    1
    40    36    38    1
    41    36    39    1
    42     1    40    1
    43    40    41    2
    44    40    42    2
    45    40    43    1
    46    43    44    1
    47    43    45    1
