@<TRIPOS>MOLECULE
8_26
 38 40 0 0 0
SMALL
USER_CHARGES
****
From 3DB ct
@<TRIPOS>ATOM
      1 C          21.2550   21.1870   16.9390 C.ar    1  LIG1       -0.6350
      2 C          21.9700   20.3240   17.7680 C.ar    1  LIG1        0.0894
      3 H          21.4620   19.5610   18.3540 H       1  LIG1        0.1821
      4 C          23.3620   20.4410   17.8520 C.ar    1  LIG1       -0.2552
      5 H          23.8940   19.7510   18.5060 H       1  LIG1        0.1939
      6 C          24.0530   21.4090   17.0960 C.ar    1  LIG1        0.3559
      7 C          23.3170   22.2770   16.2790 C.ar    1  LIG1       -0.3220
      8 H          23.7770   23.0840   15.7200 H       1  LIG1        0.1794
      9 C          21.9230   22.1610   16.1940 C.ar    1  LIG1        0.1160
     10 H          21.3670   22.8460   15.5550 H       1  LIG1        0.1758
     11 N          25.4800   21.4940   17.2190 N.ar    1  LIG1        0.0391
     12 C          26.4280   22.1430   16.4220 C.ar    1  LIG1       -0.2225
     13 C          26.2120   22.7290   15.0990 C.ar    1  LIG1        0.2605
     14 C          26.4670   24.0890   14.8770 C.ar    1  LIG1       -0.1616
     15 H          26.8180   24.7240   15.6890 H       1  LIG1        0.1733
     16 C          26.2700   24.6480   13.6120 C.ar    1  LIG1       -0.1635
     17 H          26.4650   25.7070   13.4500 H       1  LIG1        0.1589
     18 C          25.8260   23.8510   12.5580 C.ar    1  LIG1       -0.1031
     19 H          25.6720   24.2880   11.5730 H       1  LIG1        0.1490
     20 C          25.5840   22.4940   12.7650 C.ar    1  LIG1       -0.1672
     21 H          25.2440   21.8700   11.9400 H       1  LIG1        0.1611
     22 C          25.7810   21.9330   14.0290 C.ar    1  LIG1       -0.2217
     23 H          25.5940   20.8690   14.1690 H       1  LIG1        0.1760
     24 C          27.6170   22.0380   17.1180 C.ar    1  LIG1        0.2863
     25 C          27.3660   21.2570   18.2630 C.ar    1  LIG1       -0.4128
     26 N          26.0740   20.8770   18.2910 N.ar    1  LIG1       -0.2248
     27 C          28.3440   20.8370   19.3210 C.3     1  LIG1        1.5560
     28 F          29.6020   21.3190   19.0830 F       1  LIG1       -0.4764
     29 F          28.4680   19.4810   19.4160 F       1  LIG1       -0.4434
     30 F          27.9960   21.2810   20.5640 F       1  LIG1       -0.4531
     31 O          28.7700   22.5780   16.6770 O.3     1  LIG1       -0.5981
     32 H          29.5150   22.3930   17.2870 H       1  LIG1        0.4864
     33 S          19.4950   21.0410   16.7980 S.O2    1  LIG1        2.4203
     34 O          18.9400   22.2970   16.3270 O.2     1  LIG1       -0.9869
     35 O          18.9780   20.4090   17.9990 O.2     1  LIG1       -0.9829
     36 N          19.3320   19.9410   15.5440 N.3     1  LIG1       -1.3021
     37 H          18.8470   20.3610   14.7470 H       1  LIG1        0.4850
     38 H          18.8610   19.0890   15.8600 H       1  LIG1        0.4882
@<TRIPOS>BOND
     1     1     2   ar
     2     2     3    1
     3     2     4   ar
     4     4     5    1
     5     4     6   ar
     6     6     7   ar
     7     7     8    1
     8     7     9   ar
     9     9    10    1
    10     9     1   ar
    11     6    11    1
    12    11    12   ar
    13    12    13    1
    14    13    14   ar
    15    14    15    1
    16    14    16   ar
    17    16    17    1
    18    16    18   ar
    19    18    19    1
    20    18    20   ar
    21    20    21    1
    22    20    22   ar
    23    22    23    1
    24    22    13   ar
    25    12    24   ar
    26    24    25   ar
    27    25    26   ar
    28    26    11   ar
    29    25    27    1
    30    27    28    1
    31    27    29    1
    32    27    30    1
    33    24    31    1
    34    31    32    1
    35     1    33    1
    36    33    34    2
    37    33    35    2
    38    33    36    1
    39    36    37    1
    40    36    38    1
