@<TRIPOS>MOLECULE
8_2g
 41 43 0 0 0
SMALL
USER_CHARGES
****
From 3DB ct
@<TRIPOS>ATOM
      1 C          21.2480   21.1850   16.9480 C.ar    1  LIG1       -0.6205
      2 C          21.9640   20.3200   17.7750 C.ar    1  LIG1        0.0730
      3 H          21.4570   19.5570   18.3610 H       1  LIG1        0.1811
      4 C          23.3570   20.4360   17.8550 C.ar    1  LIG1       -0.2536
      5 H          23.8910   19.7460   18.5080 H       1  LIG1        0.1990
      6 C          24.0460   21.4030   17.0990 C.ar    1  LIG1        0.3643
      7 C          23.3080   22.2720   16.2830 C.ar    1  LIG1       -0.3217
      8 H          23.7710   23.0790   15.7240 H       1  LIG1        0.1848
      9 C          21.9150   22.1580   16.2010 C.ar    1  LIG1        0.0944
     10 H          21.3580   22.8430   15.5640 H       1  LIG1        0.1791
     11 N          25.4710   21.4890   17.2170 N.ar    1  LIG1        0.0048
     12 C          26.4150   22.1440   16.4220 C.ar    1  LIG1        0.1294
     13 C          26.2120   22.7290   15.0980 C.ar    1  LIG1       -0.2022
     14 C          26.4690   24.0870   14.8790 C.ar    1  LIG1       -0.0316
     15 H          26.8000   24.7250   15.6980 H       1  LIG1        0.1673
     16 C          26.2980   24.6510   13.6090 C.ar    1  LIG1       -0.3843
     17 H          26.5040   25.7120   13.4940 H       1  LIG1        0.1826
     18 C          25.8780   23.8600   12.5400 C.ar    1  LIG1        0.5700
     19 C          25.6370   22.5000   12.7530 C.ar    1  LIG1       -0.4897
     20 H          25.3140   21.8680   11.9270 H       1  LIG1        0.2283
     21 C          25.8070   21.9340   14.0200 C.ar    1  LIG1        0.0712
     22 H          25.6210   20.8700   14.1520 H       1  LIG1        0.1449
     23 O          25.6720   24.2850   11.2570 O.3     1  LIG1       -0.4534
     24 C          25.8980   25.6700   10.9970 C.3     1  LIG1        0.1007
     25 H          25.6840   25.8480    9.9380 H       1  LIG1        0.0877
     26 H          26.9450   25.9380   11.1760 H       1  LIG1        0.0370
     27 H          25.2200   26.2970   11.5850 H       1  LIG1        0.0387
     28 C          27.6110   22.0590   17.1120 C.ar    1  LIG1       -0.3924
     29 H          28.5640   22.4710   16.8040 H       1  LIG1        0.2876
     30 C          27.3590   21.2630   18.2450 C.ar    1  LIG1       -0.0290
     31 N          26.0760   20.8710   18.2820 N.ar    1  LIG1       -0.3796
     32 C          28.3550   20.8460   19.2840 C.3     1  LIG1        0.9341
     33 H          27.9040   20.2410   20.0760 H       1  LIG1        0.0393
     34 F          28.9500   21.9350   19.8610 F       1  LIG1       -0.4297
     35 F          29.3790   20.1300   18.7250 F       1  LIG1       -0.4255
     36 S          19.4880   21.0380   16.8120 S.O2    1  LIG1        2.4257
     37 O          18.9310   22.2960   16.3440 O.2     1  LIG1       -0.9918
     38 O          18.9730   20.4060   18.0140 O.2     1  LIG1       -0.9873
     39 N          19.3210   19.9390   15.5590 N.3     1  LIG1       -1.3060
     40 H          18.8350   20.3590   14.7620 H       1  LIG1        0.4853
     41 H          18.8520   19.0870   15.8750 H       1  LIG1        0.4879
@<TRIPOS>BOND
     1     1     2   ar
     2     2     3    1
     3     2     4   ar
     4     4     5    1
     5     4     6   ar
     6     6     7   ar
     7     7     8    1
     8     7     9   ar
     9     9    10    1
    10     9     1   ar
    11     6    11    1
    12    11    12   ar
    13    12    13    1
    14    13    14   ar
    15    14    15    1
    16    14    16   ar
    17    16    17    1
    18    16    18   ar
    19    18    19   ar
    20    19    20    1
    21    19    21   ar
    22    21    22    1
    23    21    13   ar
    24    18    23    1
    25    23    24    1
    26    24    25    1
    27    24    26    1
    28    24    27    1
    29    12    28   ar
    30    28    29    1
    31    28    30   ar
    32    30    31   ar
    33    31    11   ar
    34    30    32    1
    35    32    33    1
    36    32    34    1
    37    32    35    1
    38     1    36    1
    39    36    37    2
    40    36    38    2
    41    36    39    1
    42    39    40    1
    43    39    41    1
