@<TRIPOS>MOLECULE
8_35
 32 34 0 0 0
SMALL
USER_CHARGES
****
From 3DB ct
@<TRIPOS>ATOM
      1 C          21.2450   21.1810   16.9320 C.ar    1  LIG1       -0.6595
      2 C          21.9580   20.3230   17.7630 C.ar    1  LIG1        0.2807
      3 H          21.4450   19.5630   18.3470 H       1  LIG1        0.0830
      4 C          23.3500   20.4370   17.8500 C.ar    1  LIG1       -0.3060
      5 H          23.8810   19.7470   18.5050 H       1  LIG1        0.1948
      6 C          24.0420   21.4030   17.0960 C.ar    1  LIG1        0.3708
      7 C          23.3050   22.2720   16.2800 C.ar    1  LIG1       -0.4294
      8 H          23.7670   23.0790   15.7230 H       1  LIG1        0.1890
      9 C          21.9120   22.1560   16.1950 C.ar    1  LIG1        0.3220
     10 H          21.3580   22.8410   15.5570 H       1  LIG1        0.0716
     11 N          25.4660   21.4890   17.2170 N.ar    1  LIG1       -0.0236
     12 C          26.4100   22.1460   16.4240 C.ar    1  LIG1        0.0660
     13 C          26.2080   22.7290   15.1000 C.ar    1  LIG1        0.2347
     14 C          26.4660   24.0900   14.8820 C.ar    1  LIG1       -0.2943
     15 H          26.7950   24.7280   15.7010 H       1  LIG1        0.1871
     16 C          26.2950   24.6480   13.6120 C.ar    1  LIG1        0.2229
     17 H          26.4910   25.7070   13.4610 H       1  LIG1        0.0827
     18 C          25.8760   23.8450   12.5530 C.ar    1  LIG1       -0.5776
     19 C          25.6320   22.4880   12.7520 C.ar    1  LIG1        0.2259
     20 H          25.3120   21.8560   11.9270 H       1  LIG1        0.0877
     21 C          25.8030   21.9300   14.0220 C.ar    1  LIG1       -0.3425
     22 H          25.6180   20.8650   14.1590 H       1  LIG1        0.1989
     23 CL         25.6650   24.5330   10.9890 Cl      1  LIG1        0.1231
     24 C          27.6050   22.0620   17.1160 C.ar    1  LIG1       -0.3949
     25 H          28.5570   22.4770   16.8080 H       1  LIG1        0.2556
     26 C          27.3560   21.2620   18.2500 C.ar    1  LIG1       -0.1359
     27 N          26.0700   20.8680   18.2790 N.ar    1  LIG1       -0.2852
     28 C          28.3620   20.8440   19.2890 C.3     1  LIG1        1.4521
     29 F          29.5610   21.4860   19.1560 F       1  LIG1       -0.4461
     30 F          28.6390   19.5080   19.2360 F       1  LIG1       -0.4375
     31 F          27.9370   21.0970   20.5630 F       1  LIG1       -0.4439
     32 CL         19.5330   21.0440   16.8240 Cl      1  LIG1        0.1277
@<TRIPOS>BOND
     1     1     2   ar
     2     2     3    1
     3     2     4   ar
     4     4     5    1
     5     4     6   ar
     6     6     7   ar
     7     7     8    1
     8     7     9   ar
     9     9    10    1
    10     9     1   ar
    11     6    11    1
    12    11    12   ar
    13    12    13    1
    14    13    14   ar
    15    14    15    1
    16    14    16   ar
    17    16    17    1
    18    16    18   ar
    19    18    19   ar
    20    19    20    1
    21    19    21   ar
    22    21    22    1
    23    21    13   ar
    24    18    23    1
    25    12    24   ar
    26    24    25    1
    27    24    26   ar
    28    26    27   ar
    29    27    11   ar
    30    26    28    1
    31    28    29    1
    32    28    30    1
    33    28    31    1
    34     1    32    1
