@<TRIPOS>MOLECULE
9_24
 46 49 0 0 0
SMALL
USER_CHARGES
****
From 3DB ct
@<TRIPOS>ATOM
      1 C          26.3870   22.0830   16.4240 C.2     1  LIG1        0.0481
      2 C          25.4960   21.5020   17.2570 C.2     1  LIG1       -0.2671
      3 C          26.1830   20.9210   18.4750 C.3     1  LIG1       -0.0622
      4 H          26.0550   19.8340   18.5210 H       1  LIG1        0.0719
      5 H          25.7820   21.3690   19.3910 H       1  LIG1        0.0652
      6 C          27.6450   21.2710   18.2970 C.3     1  LIG1        0.0823
      7 C          27.7890   22.0250   16.9920 C.3     1  LIG1       -0.1896
      8 H          28.1850   23.0290   17.1730 H       1  LIG1        0.1105
      9 H          28.4570   21.4930   16.3060 H       1  LIG1        0.0889
     10 C          28.7300   20.3240   18.7660 C.3     1  LIG1       -0.3134
     11 H          29.6290   20.2290   18.1670 H       1  LIG1        0.1485
     12 H          28.4380   19.4060   19.2630 H       1  LIG1        0.1411
     13 C          28.5060   21.6170   19.4940 C.3     1  LIG1       -0.3154
     14 H          28.0620   21.5700   20.4820 H       1  LIG1        0.1470
     15 H          29.2530   22.3950   19.3870 H       1  LIG1        0.1453
     16 C          24.0390   21.3900   17.1150 C.ar    1  LIG1        0.4194
     17 C          23.3320   22.2680   16.2790 C.ar    1  LIG1       -0.3420
     18 H          23.8560   23.0420   15.7200 H       1  LIG1        0.1854
     19 C          21.9420   22.1760   16.1530 C.ar    1  LIG1        0.0849
     20 H          21.4160   22.8660   15.4980 H       1  LIG1        0.1779
     21 C          21.2460   21.2080   16.8800 C.ar    1  LIG1       -0.6452
     22 C          21.9330   20.3260   17.7170 C.ar    1  LIG1        0.0727
     23 H          21.4000   19.5640   18.2830 H       1  LIG1        0.1768
     24 C          23.3230   20.4240   17.8370 C.ar    1  LIG1       -0.3524
     25 H          23.8390   19.7240   18.4920 H       1  LIG1        0.1992
     26 S          19.4880   21.0700   16.7050 S.O2    1  LIG1        2.4597
     27 O          18.9300   22.3810   16.4190 O.2     1  LIG1       -0.9999
     28 O          18.9600   20.2670   17.7930 O.2     1  LIG1       -1.0012
     29 N          19.3470   20.1610   15.3060 N.3     1  LIG1       -1.3073
     30 H          18.8740   20.6880   14.5670 H       1  LIG1        0.4807
     31 H          18.8780   19.2700   15.4890 H       1  LIG1        0.4830
     32 C          26.1520   22.7070   15.1160 C.ar    1  LIG1       -0.1472
     33 C          26.4060   24.0670   14.9160 C.ar    1  LIG1        0.2894
     34 H          26.7550   24.6870   15.7390 H       1  LIG1        0.0845
     35 C          26.1970   24.6510   13.6610 C.ar    1  LIG1       -0.8629
     36 C          25.7350   23.8890   12.5760 C.ar    1  LIG1        0.9565
     37 C          25.4880   22.5290   12.7750 C.ar    1  LIG1       -0.5717
     38 H          25.1320   21.8830   11.9770 H       1  LIG1        0.2237
     39 C          25.6990   21.9460   14.0320 C.ar    1  LIG1        0.0182
     40 H          25.5090   20.8800   14.1480 H       1  LIG1        0.1444
     41 O          25.5610   24.5450   11.3850 O.3     1  LIG1       -0.6034
     42 C          25.0940   23.7760   10.2780 C.3     1  LIG1        0.2453
     43 H          25.0130   24.4470    9.4180 H       1  LIG1        0.0744
     44 H          24.0980   23.3670   10.4770 H       1  LIG1       -0.0029
     45 H          25.8060   22.9860   10.0190 H       1  LIG1       -0.0059
     46 CL         26.5250   26.3440   13.4920 Cl      1  LIG1        0.1649
@<TRIPOS>BOND
     1     1     2    2
     2     2     3    1
     3     3     4    1
     4     3     5    1
     5     3     6    1
     6     6     7    1
     7     7     8    1
     8     7     9    1
     9     7     1    1
    10     6    10    1
    11    10    11    1
    12    10    12    1
    13    10    13    1
    14    13    14    1
    15    13    15    1
    16    13     6    1
    17     2    16    1
    18    16    17   ar
    19    17    18    1
    20    17    19   ar
    21    19    20    1
    22    19    21   ar
    23    21    22   ar
    24    22    23    1
    25    22    24   ar
    26    24    25    1
    27    24    16   ar
    28    21    26    1
    29    26    27    2
    30    26    28    2
    31    26    29    1
    32    29    30    1
    33    29    31    1
    34     1    32    1
    35    32    33   ar
    36    33    34    1
    37    33    35   ar
    38    35    36   ar
    39    36    37   ar
    40    37    38    1
    41    37    39   ar
    42    39    40    1
    43    39    32   ar
    44    36    41    1
    45    41    42    1
    46    42    43    1
    47    42    44    1
    48    42    45    1
    49    35    46    1
