@<TRIPOS>MOLECULE
9_47
 43 46 0 0 0
SMALL
USER_CHARGES
****
From 3DB ct
@<TRIPOS>ATOM
      1 C          26.3870   22.0840   16.4220 C.2     1  LIG1       -0.0177
      2 C          25.4950   21.5030   17.2540 C.2     1  LIG1       -0.2510
      3 C          26.1810   20.9240   18.4740 C.3     1  LIG1       -0.0921
      4 H          26.0550   19.8370   18.5200 H       1  LIG1        0.0859
      5 H          25.7780   21.3730   19.3880 H       1  LIG1        0.0890
      6 C          27.6430   21.2760   18.2990 C.3     1  LIG1       -0.0128
      7 C          27.7880   22.0290   16.9940 C.3     1  LIG1        0.0578
      8 H          28.1800   23.0350   17.1760 H       1  LIG1        0.0326
      9 H          28.4600   21.4980   16.3100 H       1  LIG1        0.0429
     10 C          28.7280   20.3320   18.7720 C.3     1  LIG1       -0.3149
     11 H          29.6280   20.2360   18.1750 H       1  LIG1        0.1457
     12 H          28.4370   19.4160   19.2730 H       1  LIG1        0.1497
     13 C          28.5030   21.6270   19.4950 C.3     1  LIG1       -0.2870
     14 H          28.0600   21.5840   20.4840 H       1  LIG1        0.1437
     15 H          29.2520   22.4040   19.3860 H       1  LIG1        0.1416
     16 C          24.0380   21.3900   17.1130 C.ar    1  LIG1        0.3740
     17 C          23.3290   22.2670   16.2780 C.ar    1  LIG1       -0.2969
     18 H          23.8520   23.0410   15.7180 H       1  LIG1        0.1905
     19 C          21.9390   22.1730   16.1540 C.ar    1  LIG1       -0.0059
     20 H          21.4140   22.8620   15.4960 H       1  LIG1        0.1885
     21 C          21.2460   21.2040   16.8810 C.ar    1  LIG1       -0.5321
     22 C          21.9330   20.3230   17.7180 C.ar    1  LIG1        0.0074
     23 H          21.4040   19.5590   18.2840 H       1  LIG1        0.1783
     24 C          23.3240   20.4240   17.8360 C.ar    1  LIG1       -0.3338
     25 H          23.8410   19.7240   18.4900 H       1  LIG1        0.2048
     26 S          19.4820   21.0700   16.7110 S.O2    1  LIG1        2.1903
     27 O          18.9450   22.4130   16.5100 O.2     1  LIG1       -0.9700
     28 O          18.9820   20.2840   17.8350 O.2     1  LIG1       -0.9725
     29 C          19.2730   20.1390   15.2170 C.3     1  LIG1       -0.7260
     30 H          18.2020   20.0160   15.0410 H       1  LIG1        0.2369
     31 H          19.7440   19.1620   15.3370 H       1  LIG1        0.1898
     32 H          19.7240   20.6890   14.3890 H       1  LIG1        0.1886
     33 C          26.1550   22.7090   15.1140 C.ar    1  LIG1        0.0702
     34 C          26.4140   24.0720   14.9190 C.ar    1  LIG1       -0.4049
     35 H          26.7650   24.7030   15.7310 H       1  LIG1        0.2741
     36 C          26.2030   24.6490   13.6690 C.ar    1  LIG1        0.3726
     37 C          25.7440   23.8850   12.6040 C.ar    1  LIG1        0.3717
     38 C          25.4920   22.5310   12.7730 C.ar    1  LIG1       -0.3394
     39 H          25.1390   21.9340   11.9360 H       1  LIG1        0.2473
     40 C          25.7010   21.9440   14.0240 C.ar    1  LIG1       -0.1584
     41 H          25.5120   20.8770   14.1390 H       1  LIG1        0.1756
     42 F          25.5460   24.4530   11.4060 F       1  LIG1       -0.3177
     43 F          26.4460   25.9570   13.4980 F       1  LIG1       -0.3165
@<TRIPOS>BOND
     1     1     2    2
     2     2     3    1
     3     3     4    1
     4     3     5    1
     5     3     6    1
     6     6     7    1
     7     7     8    1
     8     7     9    1
     9     7     1    1
    10     6    10    1
    11    10    11    1
    12    10    12    1
    13    10    13    1
    14    13    14    1
    15    13    15    1
    16    13     6    1
    17     2    16    1
    18    16    17   ar
    19    17    18    1
    20    17    19   ar
    21    19    20    1
    22    19    21   ar
    23    21    22   ar
    24    22    23    1
    25    22    24   ar
    26    24    25    1
    27    24    16   ar
    28    21    26    1
    29    26    27    2
    30    26    28    2
    31    26    29    1
    32    29    30    1
    33    29    31    1
    34    29    32    1
    35     1    33    1
    36    33    34   ar
    37    34    35    1
    38    34    36   ar
    39    36    37   ar
    40    37    38   ar
    41    38    39    1
    42    38    40   ar
    43    40    41    1
    44    40    33   ar
    45    37    42    1
    46    36    43    1
