@<TRIPOS>MOLECULE
R14
 13 13 0 0 0
SMALL
GASTEIGER
Energy = 0

@<TRIPOS>ATOM
      1 O          -1.1032    1.2715    0.9261 O.3     1  LIG11      -0.4561
      2 C          -0.4033    2.0895    0.0418 C.2     1  LIG11       0.3509
      3 C           0.8088    1.3574   -0.4227 C.2     1  LIG11       0.1269
      4 C           0.8263    0.1356    0.1708 C.2     1  LIG11      -0.0105
      5 C          -0.3898    0.0159    1.0613 C.3     1  LIG11       0.1155
      6 H          -1.0843   -0.7959    0.7298 H       1  LIG11       0.0746
      7 H          -0.1225   -0.0961    2.1405 H       1  LIG11       0.0746
      8 C           1.7939   -0.9530    0.0531 C.3     1  LIG11      -0.0387
      9 H           2.5705   -0.7265   -0.7208 H       1  LIG11       0.0276
     10 H           2.3097   -1.1170    1.0344 H       1  LIG11       0.0276
     11 H           1.2746   -1.9040   -0.2317 H       1  LIG11       0.0276
     12 CL          1.8944    2.0221   -1.4955 Cl      1  LIG11      -0.0761
     13 O          -0.8776    3.1925   -0.1788 O.2     1  LIG11      -0.2440
@<TRIPOS>BOND
     1    12     3    1
     2     9     8    1
     3     3     2    1
     4     3     4    2
     5    11     8    1
     6    13     2    2
     7     2     1    1
     8     8     4    1
     9     8    10    1
    10     4     5    1
    11     6     5    1
    12     1     5    1
    13     5     7    1
