@<TRIPOS>MOLECULE
R4
 13 13 0 0 0
SMALL
GASTEIGER
Energy = 0

@<TRIPOS>ATOM
      1 O          -1.1029    1.2690    0.9262 O.3     1  LIG11      -0.4563
      2 C          -0.4045    2.0876    0.0447 C.2     1  LIG11       0.3465
      3 C           0.8135    1.3608   -0.4276 C.2     1  LIG11       0.1060
      4 C           0.8223    0.1396    0.1710 C.2     1  LIG11       0.0120
      5 C          -0.3922    0.0155    1.0639 C.3     1  LIG11       0.1173
      6 H          -1.0908   -0.7968    0.7335 H       1  LIG11       0.0747
      7 H          -0.1234   -0.0945    2.1451 H       1  LIG11       0.0747
      8 C           1.8129   -0.9276    0.0220 C.3     1  LIG11       0.0956
      9 H           2.6284   -0.6282   -0.6853 H       1  LIG11       0.0585
     10 BR          1.0365   -2.5249   -0.7272 Br      1  LIG11      -0.0709
     11 BR          2.6965   -1.3201    1.6903 Br      1  LIG11      -0.0709
     12 BR          2.0107    2.0899   -1.6081 Br      1  LIG11      -0.0428
     13 O          -0.8750    3.1900   -0.1797 O.2     1  LIG11      -0.2444
@<TRIPOS>BOND
     1    12     3    1
     2    10     8    1
     3     9     8    1
     4     3     2    1
     5     3     4    2
     6    13     2    2
     7     8     4    1
     8     8    11    1
     9     2     1    1
    10     4     5    1
    11     6     5    1
    12     1     5    1
    13     5     7    1
