@<TRIPOS>MOLECULE
S1
 14 14 0 0 0
SMALL
GASTEIGER
Energy = 0

@<TRIPOS>ATOM
      1 O          -1.1115    1.2624    0.9141 O.3     1  LIG11      -0.4270
      2 C          -0.4086    2.0898    0.0450 C.2     1  LIG11       0.3532
      3 C           0.8162    1.3596   -0.4238 C.2     1  LIG11       0.1324
      4 C           0.8251    0.1359    0.1566 C.2     1  LIG11       0.0551
      5 C          -0.3888    0.0206    1.0833 C.3     1  LIG11       0.2298
      6 H          -0.1219   -0.1080    2.1664 H       1  LIG11       0.1109
      7 O          -1.2921   -0.9811    0.7516 O.3     1  LIG11      -0.3542
      8 H          -1.7062   -0.7621   -0.0962 H       1  LIG11       0.2139
      9 C           1.7612   -0.9915    0.0473 C.3     1  LIG11       0.1363
     10 H           1.3462   -1.9052    0.5504 H       1  LIG11       0.0684
     11 CL          2.0381   -1.4378   -1.6274 Cl      1  LIG11      -0.0995
     12 CL          3.2748   -0.6165    0.8598 Cl      1  LIG11      -0.0995
     13 CL          1.8956    2.0445   -1.4790 Cl      1  LIG11      -0.0759
     14 O          -0.8712    3.1941   -0.1766 O.2     1  LIG11      -0.2439
@<TRIPOS>BOND
     1    11     9    1
     2    13     3    1
     3     3     2    1
     4     3     4    2
     5    14     2    2
     6     8     7    1
     7     2     1    1
     8     9     4    1
     9     9    10    1
    10     9    12    1
    11     4     5    1
    12     7     5    1
    13     1     5    1
    14     5     6    1
