@<TRIPOS>MOLECULE
S11
 11 11 0 0 0
SMALL
GASTEIGER
Energy = 0

@<TRIPOS>ATOM
      1 O          -1.1098    1.2651    0.9160 O.3     1  LIG11      -0.4274
      2 C          -0.4073    2.0909    0.0446 C.2     1  LIG11       0.3528
      3 C           0.8124    1.3558   -0.4222 C.2     1  LIG11       0.1267
      4 C           0.8241    0.1380    0.1610 C.2     1  LIG11       0.0087
      5 H           1.5406   -0.6773    0.0564 H       1  LIG11       0.0650
      6 C          -0.3857    0.0172    1.0769 C.3     1  LIG11       0.2244
      7 H          -0.1324   -0.1214    2.1612 H       1  LIG11       0.1105
      8 O          -1.2939   -0.9780    0.7316 O.3     1  LIG11      -0.3545
      9 H          -1.6808   -0.7593   -0.1272 H       1  LIG11       0.2139
     10 CL          1.9006    2.0234   -1.4875 Cl      1  LIG11      -0.0763
     11 O          -0.8725    3.1953   -0.1777 O.2     1  LIG11      -0.2439
@<TRIPOS>BOND
     1    10     3    1
     2     3     2    1
     3     3     4    2
     4    11     2    2
     5     9     8    1
     6     2     1    1
     7     5     4    1
     8     4     6    1
     9     8     6    1
    10     1     6    1
    11     6     7    1
