@<TRIPOS>MOLECULE
S3
 14 14 0 0 0
SMALL
GASTEIGER
Energy = 0

@<TRIPOS>ATOM
      1 O          -1.1114    1.2618    0.9142 O.3     1  LIG11      -0.4273
      2 C          -0.4042    2.0880    0.0441 C.2     1  LIG11       0.3487
      3 C           0.8193    1.3625   -0.4273 C.2     1  LIG11       0.1087
      4 C           0.8226    0.1376    0.1569 C.2     1  LIG11       0.0423
      5 C          -0.3921    0.0210    1.0854 C.3     1  LIG11       0.2288
      6 H          -0.1222   -0.1094    2.1663 H       1  LIG11       0.1109
      7 O          -1.2930   -0.9819    0.7501 O.3     1  LIG11      -0.3542
      8 H          -1.7289   -0.7468   -0.0819 H       1  LIG11       0.2139
      9 C           1.7565   -0.9809    0.0461 C.3     1  LIG11       0.0982
     10 H           1.3279   -1.8871    0.5479 H       1  LIG11       0.0586
     11 BR          2.0766   -1.5048   -1.7802 Br      1  LIG11      -0.0708
     12 BR          3.4176   -0.6044    0.9485 Br      1  LIG11      -0.0708
     13 BR          2.0257    2.0977   -1.5868 Br      1  LIG11      -0.0427
     14 O          -0.8730    3.1915   -0.1748 O.2     1  LIG11      -0.2443
@<TRIPOS>BOND
     1    11     9    1
     2    13     3    1
     3     3     2    1
     4     3     4    2
     5    14     2    2
     6     8     7    1
     7     2     1    1
     8     9     4    1
     9     9    10    1
    10     9    12    1
    11     4     5    1
    12     7     5    1
    13     1     5    1
    14     5     6    1
