@<TRIPOS>MOLECULE
S8
 14 14 0 0 0
SMALL
GASTEIGER
Energy = 0

@<TRIPOS>ATOM
      1 O          -1.1093    1.2652    0.9185 O.3     1  LIG11      -0.4271
      2 C          -0.4054    2.0908    0.0423 C.2     1  LIG11       0.3531
      3 C           0.8115    1.3581   -0.4224 C.2     1  LIG11       0.1296
      4 C           0.8287    0.1352    0.1603 C.2     1  LIG11       0.0198
      5 C          -0.3905    0.0183    1.0770 C.3     1  LIG11       0.2270
      6 H          -0.1361   -0.1238    2.1606 H       1  LIG11       0.1108
      7 O          -1.3012   -0.9744    0.7280 O.3     1  LIG11      -0.3543
      8 H          -1.6993   -0.7421   -0.1230 H       1  LIG11       0.2139
      9 C           1.7843   -0.9635    0.0366 C.3     1  LIG11      -0.0360
     10 H           2.4683   -0.9774    0.9240 H       1  LIG11       0.0277
     11 H           1.2386   -1.9419    0.0009 H       1  LIG11       0.0277
     12 H           2.4072   -0.8593   -0.8869 H       1  LIG11       0.0277
     13 CL          1.8970    2.0308   -1.4891 Cl      1  LIG11      -0.0760
     14 O          -0.8739    3.1949   -0.1772 O.2     1  LIG11      -0.2439
@<TRIPOS>BOND
     1    13     3    1
     2    12     9    1
     3     3     2    1
     4     3     4    2
     5    14     2    2
     6     8     7    1
     7    11     9    1
     8     9     4    1
     9     9    10    1
    10     2     1    1
    11     4     5    1
    12     7     5    1
    13     1     5    1
    14     5     6    1
