@<TRIPOS>MOLECULE
cpd_21
 52 56 0 0 0
SMALL
GASTEIGER
Energy = 0

@<TRIPOS>ATOM
      1 C1         -0.3115    2.0669   -1.1219 C.ar    1  <0>1        0.0653
      2 C2         -1.1725    1.0471   -0.7709 C.ar    1  <0>1        0.0045
      3 C3         -2.5176    1.0310   -1.1342 C.ar    1  <0>1       -0.0522
      4 C4         -2.9804    2.1300   -1.8651 C.ar    1  <0>1       -0.0597
      5 C5         -2.1161    3.1787   -2.2188 C.ar    1  <0>1       -0.0414
      6 C6         -0.7616    3.1643   -1.8559 C.ar    1  <0>1        0.0648
      7 C7         -0.2898    0.1148    0.0116 C.ar    1  <0>1       -0.0194
      8 C8          0.9416    0.6565    0.0144 C.ar    1  <0>1        0.0062
      9 N1          0.9197    1.7886   -0.6448 N.ar    1  <0>1       -0.3592
     10 C9         -0.8112   -1.1518    0.6410 C.3     1  <0>1       -0.0172
     11 C10         0.2971   -2.1201    1.1147 C.3     1  <0>1       -0.0612
     12 C11        -0.3334   -3.3425    1.8332 C.3     1  <0>1       -0.0901
     13 N2         -1.1899   -2.9554    2.9932 N.4     1  <0>1        0.3799
     14 C12        -2.2543   -2.0092    2.5541 C.3     1  <0>1       -0.0901
     15 C13        -1.6896   -0.7522    1.8491 C.3     1  <0>1       -0.0612
     16 C14        -1.7317   -4.1785    3.6601 C.3     1  <0>1       -0.0871
     17 H1         -2.5056    4.0174   -2.7853 H       1  <0>1        0.0633
     18 C15        -2.6416   -3.9416    4.9007 C.3     1  <0>1       -0.0479
     19 C16        -1.9048   -3.3533    6.1389 C.3     1  <0>1       -0.0260
     20 C17        -3.3414   -5.2358    5.4034 C.3     1  <0>1       -0.0260
     21 C18        -3.6600   -4.8359    6.8371 C.ar    1  <0>1       -0.0440
     22 C19        -4.6294   -5.3784    7.6815 C.ar    1  <0>1       -0.0583
     23 C20        -2.8453   -3.7907    7.2555 C.ar    1  <0>1       -0.0440
     24 C21        -4.7548   -4.8518    8.9720 C.ar    1  <0>1       -0.0615
     25 C22        -2.9564   -3.2676    8.5450 C.ar    1  <0>1       -0.0583
     26 C23        -3.9233   -3.8084    9.4008 C.ar    1  <0>1       -0.0615
     27 H2         -3.1669    0.2059   -0.8632 H       1  <0>1        0.0624
     28 H3         -4.0243    2.1659   -2.1602 H       1  <0>1        0.0618
     29 Cl1         0.3129    4.4711   -2.3072 Cl      1  <0>1       -0.0814
     30 H4          1.8299    0.2404    0.4889 H       1  <0>1        0.0810
     31 H5          1.7436    2.3949   -0.7775 H       1  <0>1        0.1654
     32 H6         -1.4352   -1.6677   -0.1085 H       1  <0>1        0.0348
     33 H7          0.8850   -2.4495    0.2411 H       1  <0>1        0.0253
     34 H8          0.9700   -1.6072    1.8189 H       1  <0>1        0.0253
     35 H9          0.4939   -3.9979    2.1573 H       1  <0>1        0.0059
     36 H10        -0.9292   -3.9056    1.0947 H       1  <0>1        0.0059
     37 H11        -2.9584   -2.5242    1.8787 H       1  <0>1        0.0059
     38 H12        -2.8286   -1.6006    3.3995 H       1  <0>1        0.0059
     39 H13        -1.0817   -0.1723    2.5630 H       1  <0>1        0.0253
     40 H14        -2.5297   -0.1153    1.5248 H       1  <0>1        0.0253
     41 H15        -0.9013   -4.8284    3.9865 H       1  <0>1        0.0062
     42 H16        -2.3267   -4.7529    2.9316 H       1  <0>1        0.0062
     43 H17        -3.4855   -3.2762    4.6626 H       1  <0>1        0.0289
     44 H18        -1.7811   -2.2601    6.0887 H       1  <0>1        0.0315
     45 H19        -0.9276   -3.8345    6.3005 H       1  <0>1        0.0315
     46 H20        -2.6537   -6.0946    5.4156 H       1  <0>1        0.0315
     47 H21        -4.2449   -5.4877    4.8239 H       1  <0>1        0.0315
     48 H22        -5.2685   -6.1857    7.3399 H       1  <0>1        0.0620
     49 H23        -5.5039   -5.2564    9.6454 H       1  <0>1        0.0618
     50 H24        -2.3087   -2.4606    8.8710 H       1  <0>1        0.0620
     51 H25        -4.0304   -3.4146   10.4067 H       1  <0>1        0.0618
     52 H26        -0.6120   -2.4732    3.6637 H       1  <0>1       -0.0818
@<TRIPOS>BOND
     1     8     9   ar
     2    12    13    1
     3     1     2   ar
     4     1     6   ar
     5     1     9   ar
     6     2     3   ar
     7     2     7   ar
     8     3    27    1
     9     3     4   ar
    10     4    28    1
    11     4     5   ar
    12     5    17    1
    13     5     6   ar
    14     6    29    1
    15     7    10    1
    16     7     8   ar
    17     8    30    1
    18     9    31    1
    19    10    32    1
    20    10    11    1
    21    10    15    1
    22    11    12    1
    23    11    33    1
    24    11    34    1
    25    12    36    1
    26    12    35    1
    27    13    16    1
    28    13    14    1
    29    13    52    1
    30    14    37    1
    31    14    38    1
    32    14    15    1
    33    15    40    1
    34    15    39    1
    35    16    42    1
    36    16    41    1
    37    16    18    1
    38    18    20    1
    39    18    43    1
    40    18    19    1
    41    19    23    1
    42    19    45    1
    43    19    44    1
    44    20    47    1
    45    20    46    1
    46    20    21    1
    47    21    22   ar
    48    21    23   ar
    49    22    48    1
    50    22    24   ar
    51    23    25   ar
    52    24    49    1
    53    24    26   ar
    54    25    26   ar
    55    25    50    1
    56    26    51    1
