@<TRIPOS>MOLECULE
cpd_13
 55 58 0 0 0
SMALL
GASTEIGER
Energy = 0

@<TRIPOS>ATOM
      1 C1         -1.4235    0.4865   -0.1665 C.ar    1  <0>1        0.0298
      2 C2         -2.5439    0.8671   -0.8967 C.ar    1  <0>1       -0.0372
      3 C3         -2.4801    1.9836   -1.7257 C.ar    1  <0>1       -0.0182
      4 C4         -1.2822    2.7000   -1.8585 C.ar    1  <0>1        0.1202
      5 C5         -0.1525    2.2917   -1.1402 C.ar    1  <0>1       -0.0182
      6 C6         -0.2207    1.1918   -0.2853 C.ar    1  <0>1       -0.0372
      7 N1         -1.5423   -0.6038    0.7088 N.pl3   1  <0>1       -0.3334
      8 C7         -0.4423   -1.5834    0.7723 C.3     1  <0>1       -0.0027
      9 C8         -0.9012   -2.8644    1.4966 C.3     1  <0>1       -0.0744
     10 N2         -1.4781   -2.5420    2.8302 N.4     1  <0>1        0.3818
     11 C9         -2.6472   -1.6349    2.6841 C.3     1  <0>1       -0.0744
     12 C10        -2.2563   -0.3275    1.9669 C.3     1  <0>1       -0.0027
     13 C11        -1.8293   -3.8063    3.5294 C.3     1  <0>1       -0.0878
     14 C12        -2.3471   -3.6071    4.9798 C.3     1  <0>1       -0.0373
     15 C13        -2.6067   -4.9728    5.6618 C.3     1  <0>1        0.0822
     16 C14        -3.2419   -4.7963    7.0510 C.ar    1  <0>1       -0.0157
     17 C15        -4.4231   -5.4764    7.3715 C.ar    1  <0>1       -0.0396
     18 C16        -5.0641   -6.4304    6.3606 C.3     1  <0>1       -0.0038
     19 C17        -4.0128   -6.8834    5.3244 C.3     1  <0>1        0.0524
     20 O1         -3.4482   -5.7028    4.7483 O.3     1  <0>1       -0.3717
     21 C18        -2.6453   -3.9678    8.0095 C.ar    1  <0>1       -0.0559
     22 C19        -3.2417   -3.7851    9.2595 C.ar    1  <0>1       -0.0614
     23 C20        -4.4310   -4.4492    9.5679 C.ar    1  <0>1       -0.0615
     24 C21        -5.0209   -5.2916    8.6224 C.ar    1  <0>1       -0.0582
     25 O2         -1.1802    3.8192   -2.6929 O.3     1  <0>1       -0.4951
     26 H1         -2.5900   -4.3384    2.9351 H       1  <0>1        0.0060
     27 H2         -0.9387   -4.4555    3.5909 H       1  <0>1        0.0060
     28 H3         -1.6064   -3.0052    5.5276 H       1  <0>1        0.0275
     29 H4         -3.3132   -3.0822    4.9944 H       1  <0>1        0.0275
     30 H5         -1.6564   -5.5161    5.7880 H       1  <0>1        0.0645
     31 H6         -5.4813   -7.3145    6.8680 H       1  <0>1        0.0336
     32 H7         -5.8808   -5.8903    5.8548 H       1  <0>1        0.0336
     33 H8         -3.2339   -7.5170    5.7788 H       1  <0>1        0.0563
     34 H9         -4.5037   -7.4527    4.5195 H       1  <0>1        0.0563
     35 H10        -1.7104   -3.4608    7.8004 H       1  <0>1        0.0621
     36 H11        -2.7797   -3.1291    9.9909 H       1  <0>1        0.0618
     37 H12        -4.8939   -4.3125   10.5399 H       1  <0>1        0.0618
     38 H13        -5.9466   -5.8040    8.8636 H       1  <0>1        0.0620
     39 H14        -3.4668    0.3013   -0.8121 H       1  <0>1        0.0637
     40 H15        -3.3954    2.2459   -2.2382 H       1  <0>1        0.0655
     41 H16         0.7834    2.8324   -1.2435 H       1  <0>1        0.0655
     42 H17         0.6589    0.9046    0.2793 H       1  <0>1        0.0637
     43 H18         0.4142   -1.1604    1.3182 H       1  <0>1        0.0445
     44 H19        -0.1241   -1.8334   -0.2545 H       1  <0>1        0.0445
     45 H20        -0.0204   -3.5251    1.5836 H       1  <0>1        0.0074
     46 H21        -1.6454   -3.3764    0.8634 H       1  <0>1        0.0074
     47 H22        -3.0655   -1.3100    3.6496 H       1  <0>1        0.0074
     48 H23        -3.4491   -2.1351    2.1148 H       1  <0>1        0.0074
     49 H24        -1.6129    0.2997    2.6038 H       1  <0>1        0.0445
     50 H25        -3.1818    0.2367    1.7548 H       1  <0>1        0.0445
     51 C22        -2.3483    4.2315   -3.4161 C.3     1  <0>1        0.0788
     52 H26        -2.1113    5.1136   -4.0232 H       1  <0>1        0.0660
     53 H27        -3.1505    4.5022   -2.7110 H       1  <0>1        0.0660
     54 H28        -2.6756    3.4253   -4.0919 H       1  <0>1        0.0660
     55 H29        -0.7788   -2.0633    3.3761 H       1  <0>1       -0.0817
@<TRIPOS>BOND
     1     9    10    1
     2     1     7    1
     3     1     2   ar
     4     1     6   ar
     5     2    39    1
     6     2     3   ar
     7     3    40    1
     8     3     4   ar
     9     4     5   ar
    10     4    25    1
    11     5     6   ar
    12     5    41    1
    13     6    42    1
    14     7     8    1
    15     7    12    1
    16     8    44    1
    17     8     9    1
    18     8    43    1
    19     9    46    1
    20     9    45    1
    21    10    13    1
    22    10    11    1
    23    10    55    1
    24    11    48    1
    25    11    12    1
    26    11    47    1
    27    12    50    1
    28    12    49    1
    29    13    26    1
    30    13    27    1
    31    13    14    1
    32    14    15    1
    33    14    29    1
    34    14    28    1
    35    15    20    1
    36    15    30    1
    37    15    16    1
    38    16    17   ar
    39    16    21   ar
    40    17    18    1
    41    17    24   ar
    42    18    19    1
    43    18    31    1
    44    18    32    1
    45    19    34    1
    46    19    33    1
    47    19    20    1
    48    21    35    1
    49    21    22   ar
    50    22    23   ar
    51    22    36    1
    52    23    24   ar
    53    23    37    1
    54    24    38    1
    55    25    51    1
    56    51    52    1
    57    51    53    1
    58    51    54    1
