@<TRIPOS>MOLECULE
cpd_03
 47 50 0 0 0
SMALL
GASTEIGER
Energy = 0

@<TRIPOS>ATOM
      1 Cl1        -4.5603    1.3401   -2.4298 Cl      1  <0>1       -0.0835
      2 C1         -2.9688    1.5946   -1.8277 C.ar    1  <0>1        0.0413
      3 C2         -2.4021    2.8692   -1.8439 C.ar    1  <0>1       -0.0431
      4 C3         -1.1099    3.0525   -1.3469 C.ar    1  <0>1       -0.0563
      5 C4         -0.4074    1.9598   -0.8377 C.ar    1  <0>1       -0.0352
      6 C5         -0.9575    0.7335   -0.8099 C.ar    1  <0>1       -0.0251
      7 C6         -2.2427    0.5202   -1.3116 C.ar    1  <0>1       -0.0384
      8 C7          1.0060    1.9745   -0.2706 C.3     1  <0>1        0.0113
      9 C8         -0.0092   -0.2874   -0.2024 C.3     1  <0>1        0.0366
     10 C9          1.0480    0.6166    0.4885 C.3     1  <0>1       -0.0223
     11 C10         2.1046    2.1697   -1.2944 C.ar    1  <0>1       -0.0397
     12 N1         -0.6771   -1.2410    0.6980 N.3     1  <0>1       -0.2989
     13 C11         2.8181    3.3775   -1.3199 C.ar    1  <0>1       -0.0553
     14 C12         3.8284    3.5908   -2.2595 C.ar    1  <0>1       -0.0262
     15 C13         4.1475    2.6031   -3.1880 C.ar    1  <0>1        0.1234
     16 C14         3.4450    1.4005   -3.1724 C.ar    1  <0>1       -0.0262
     17 C15         2.4320    1.1842   -2.2361 C.ar    1  <0>1       -0.0553
     18 C16        -1.4714   -0.6725    1.7912 C.3     1  <0>1       -0.0154
     19 C17         0.2112   -2.2981    1.1800 C.3     1  <0>1       -0.0154
     20 C18        -0.5856   -3.4093    1.8783 C.3     1  <0>1       -0.0778
     21 C19        -2.3023   -1.7619    2.4824 C.3     1  <0>1       -0.0778
     22 N2         -1.4291   -2.8669    2.9895 N.4     1  <0>1        0.3795
     23 C20        -2.2542   -3.9516    3.6016 C.3     1  <0>1       -0.1031
     24 H1         -0.8197   -2.4921    3.6996 H       1  <0>1       -0.0821
     25 F1          5.1050    2.8043   -4.0753 F       1  <0>1       -0.2055
     26 H2         -2.9670    3.7237   -2.2522 H       1  <0>1        0.0632
     27 H3         -0.6441    4.0528   -1.3655 H       1  <0>1        0.0621
     28 H4         -2.6835   -0.4889   -1.3041 H       1  <0>1        0.0635
     29 H5          1.0692    2.7958    0.4821 H       1  <0>1        0.0398
     30 H6          0.4559   -0.8527   -1.0380 H       1  <0>1        0.0512
     31 H7          2.0622    0.1602    0.4915 H       1  <0>1        0.0293
     32 H8          0.7705    0.7995    1.5503 H       1  <0>1        0.0293
     33 H9          2.5833    4.1787   -0.5982 H       1  <0>1        0.0621
     34 H10         4.3835    4.5429   -2.2755 H       1  <0>1        0.0646
     35 H11         3.6962    0.6241   -3.9134 H       1  <0>1        0.0646
     36 H12         1.8864    0.2287   -2.2617 H       1  <0>1        0.0621
     37 H13        -0.8137   -0.1806    2.5376 H       1  <0>1        0.0408
     38 H14        -2.1573    0.1083    1.4023 H       1  <0>1        0.0408
     39 H15         0.7684   -2.7380    0.3253 H       1  <0>1        0.0408
     40 H16         0.9673   -1.8757    1.8757 H       1  <0>1        0.0408
     41 H17         0.1193   -4.1835    2.2620 H       1  <0>1        0.0071
     42 H18        -1.2296   -3.9152    1.1216 H       1  <0>1        0.0071
     43 H19        -3.0466   -2.1616    1.7546 H       1  <0>1        0.0071
     44 H20        -2.8864   -1.3080    3.3168 H       1  <0>1        0.0071
     45 H21        -2.8679   -3.5652    4.4464 H       1  <0>1        0.0023
     46 H22        -2.9504   -4.4042    2.8608 H       1  <0>1        0.0023
     47 H23        -1.6141   -4.7688    4.0038 H       1  <0>1        0.0023
@<TRIPOS>BOND
     1     1     2    1
     2     2     3   ar
     3     2     7   ar
     4     3     4   ar
     5     3    26    1
     6     4     5   ar
     7     4    27    1
     8     5     6   ar
     9     5     8    1
    10     6     7   ar
    11     6     9    1
    12     7    28    1
    13     8    11    1
    14     8    10    1
    15     8    29    1
    16     9    12    1
    17     9    10    1
    18     9    30    1
    19    10    31    1
    20    10    32    1
    21    11    13   ar
    22    11    17   ar
    23    12    18    1
    24    12    19    1
    25    13    14   ar
    26    13    33    1
    27    14    15   ar
    28    14    34    1
    29    15    16   ar
    30    15    25    1
    31    16    17   ar
    32    16    35    1
    33    17    36    1
    34    18    21    1
    35    18    37    1
    36    18    38    1
    37    19    20    1
    38    19    39    1
    39    19    40    1
    40    20    22    1
    41    20    41    1
    42    20    42    1
    43    21    22    1
    44    21    43    1
    45    21    44    1
    46    22    23    1
    47    22    24    1
    48    23    45    1
    49    23    46    1
    50    23    47    1
