@<TRIPOS>MOLECULE
CCR5_24
 74 77 0 0 0
SMALL
GASTEIGER

@<TRIPOS>ATOM
      1 C1         -3.9926    1.4343   -1.5008 C.3     1  BENZYL1111    0.0140
      2 C2         -4.4320    2.6742   -0.6909 C.ar    1  BENZYL1111   -0.0398
      3 C3         -5.7774    3.0578   -0.7696 C.ar    1  BENZYL1111   -0.0580
      4 C4         -6.2661    4.1360   -0.0265 C.ar    1  BENZYL1111   -0.0615
      5 C5         -5.4035    4.8630    0.7965 C.ar    1  BENZYL1111   -0.0617
      6 C6         -4.0525    4.5138    0.8569 C.ar    1  BENZYL1111   -0.0615
      7 C7         -3.5680    3.4369    0.1081 C.ar    1  BENZYL1111   -0.0580
      8 C          -4.9738    0.2620   -1.3161 C.ar    2  PHENYL2222   -0.0398
      9 C          -5.5998    0.0327   -0.0843 C.ar    2  PHENYL2222   -0.0580
     10 C          -6.4943   -1.0303    0.0700 C.ar    2  PHENYL2222   -0.0615
     11 C          -6.7681   -1.8769   -1.0072 C.ar    2  PHENYL2222   -0.0617
     12 C          -6.1432   -1.6582   -2.2376 C.ar    2  PHENYL2222   -0.0615
     13 C          -5.2489   -0.5945   -2.3888 C.ar    2  PHENYL2222   -0.0580
     14 C14        -2.5489    0.9025   -1.2603 C.3     1  BENZYL1111   -0.0017
     15 C15        -2.3517    0.2755    0.1489 C.3     1  BENZYL1111   -0.0310
     16 N16        -0.9096    0.1729    0.5000 N.4     3  CYCLOHEXYL3333    0.2353
     17 C2         -0.1624   -0.8704   -0.2472 C.3     3  CYCLOHEXYL3333   -0.0302
     18 C3          1.3614   -0.7716    0.0203 C.3     3  CYCLOHEXYL3333    0.0063
     19 C4          1.6614   -0.8600    1.5375 C.3     3  CYCLOHEXYL3333    0.0353
     20 C5          0.8630    0.2680    2.2418 C.3     3  CYCLOHEXYL3333    0.0063
     21 C6         -0.6528    0.1140    1.9614 C.3     3  CYCLOHEXYL3333   -0.0302
     22 N22         3.1231   -0.8498    1.7259 N.am    3  CYCLOHEXYL3333   -0.3008
     23 C23         3.8752    0.3777    2.0214 C.3     3  CYCLOHEXYL3333    0.0035
     24 N24         7.5495    1.6156   -2.1887 N.am    4  PHENYL4444   -0.2857
     25 C25         3.7883   -2.0150    1.4731 C.2     3  CYCLOHEXYL3333    0.2199
     26 O26         3.1841   -3.0439    1.2140 O.2     3  CYCLOHEXYL3333   -0.2752
     27 C27         5.2955   -2.1297    1.4787 C.3     3  CYCLOHEXYL3333    0.0493
     28 C           5.9311   -1.1474    0.4857 C.ar    4  PHENYL4444   -0.0385
     29 C           7.0274   -0.3584    0.8508 C.ar    4  PHENYL4444   -0.0564
     30 C           7.5630    0.5643   -0.0525 C.ar    4  PHENYL4444   -0.0402
     31 C           7.0230    0.7017   -1.3358 C.ar    4  PHENYL4444    0.0334
     32 C           5.9569   -0.1225   -1.7149 C.ar    4  PHENYL4444   -0.0402
     33 C           5.4079   -1.0319   -0.8065 C.ar    4  PHENYL4444   -0.0564
     34 C34         6.7999    2.3981   -2.9204 C.2     4  PHENYL4444    0.2141
     35 O35         5.5806    2.3858   -2.8853 O.2     4  PHENYL4444   -0.2758
     36 C36         7.4693    3.3800   -3.8484 C.3     4  PHENYL4444    0.0125
     37 H          -3.9994    1.8107   -2.5024 H       1  BENZYL1111    0.0399
     38 H          -6.4185    2.5352   -1.3868 H       1  BENZYL1111    0.0620
     39 H          -7.2634    4.3946   -0.0860 H       1  BENZYL1111    0.0618
     40 H          -5.7617    5.6527    1.3561 H       1  BENZYL1111    0.0618
     41 H          -3.4089    5.0531    1.4569 H       1  BENZYL1111    0.0618
     42 H          -2.5640    3.2009    0.1438 H       1  BENZYL1111    0.0620
     43 H          -5.3991    0.6533    0.7155 H       2  PHENYL2222    0.0620
     44 H          -6.9530   -1.1899    0.9806 H       2  PHENYL2222    0.0618
     45 H          -7.4296   -2.6610   -0.8945 H       2  PHENYL2222    0.0618
     46 H          -6.3420   -2.2822   -3.0351 H       2  PHENYL2222    0.0618
     47 H          -4.7876   -0.4393   -3.2988 H       2  PHENYL2222    0.0620
     48 H          -1.8459    1.6967   -1.4012 H       1  BENZYL1111    0.0326
     49 H          -2.3844    0.1210   -1.9724 H       1  BENZYL1111    0.0326
     50 H          -2.8053   -0.6930    0.1838 H       1  BENZYL1111    0.0815
     51 H          -2.8218    0.9166    0.8650 H       1  BENZYL1111    0.0815
     52 H          -0.5233    1.0600    0.1772 H       3  CYCLOHEXYL3333    0.2033
     53 H          -0.3557   -0.7774   -1.2955 H       3  CYCLOHEXYL3333    0.0815
     54 H          -0.4980   -1.8275    0.0938 H       3  CYCLOHEXYL3333    0.0815
     55 H           1.8761   -1.5515   -0.5009 H       3  CYCLOHEXYL3333    0.0335
     56 H           1.7054    0.1767   -0.3365 H       3  CYCLOHEXYL3333    0.0335
     57 H           1.3353   -1.7706    1.9950 H       3  CYCLOHEXYL3333    0.0504
     58 H           1.0460    0.2449    3.2958 H       3  CYCLOHEXYL3333    0.0335
     59 H           1.1881    1.2104    1.8530 H       3  CYCLOHEXYL3333    0.0335
     60 H          -1.0094   -0.8122    2.3613 H       3  CYCLOHEXYL3333    0.0815
     61 H          -1.1753    0.9179    2.4365 H       3  CYCLOHEXYL3333    0.0815
     62 H           3.1917    1.1831    2.1917 H       3  CYCLOHEXYL3333    0.0429
     63 H           4.5317    0.6142    1.2103 H       3  CYCLOHEXYL3333    0.0429
     64 H           4.4655    0.2255    2.9008 H       3  CYCLOHEXYL3333    0.0429
     65 H           8.5285    1.6923   -2.2591 H       4  PHENYL4444    0.1548
     66 H           5.5864   -3.1310    1.2386 H       3  CYCLOHEXYL3333    0.0407
     67 H           5.6442   -1.8833    2.4598 H       3  CYCLOHEXYL3333    0.0407
     68 H           7.4422   -0.4580    1.7905 H       4  PHENYL4444    0.0621
     69 H           8.3645    1.1498    0.2300 H       4  PHENYL4444    0.0636
     70 H           5.5739   -0.0583   -2.6711 H       4  PHENYL4444    0.0636
     71 H           4.6108   -1.6224   -1.0911 H       4  PHENYL4444    0.0621
     72 H           8.5315    3.2762   -3.7723 H       4  PHENYL4444    0.0323
     73 H           7.1763    4.3796   -3.6039 H       4  PHENYL4444    0.0323
     74 H           7.1671    3.1755   -4.8543 H       4  PHENYL4444    0.0323
@<TRIPOS>BOND
     1     1     2    1
     2     2     3   ar
     3     2     7   ar
     4     7     6   ar
     5     6     5   ar
     6     5     4   ar
     7     4     3   ar
     8     8     9   ar
     9     8    13   ar
    10    13    12   ar
    11    12    11   ar
    12    11    10   ar
    13    10     9   ar
    14     1     8    1
    15     1    14    1
    16    14    15    1
    17    16    17    1
    18    16    21    1
    19    21    20    1
    20    20    19    1
    21    19    18    1
    22    18    17    1
    23    15    16    1
    24    19    22    1
    25    22    23    1
    26    31    24    1
    27    22    25   am
    28    25    26    2
    29    25    27    1
    30    28    29   ar
    31    33    28   ar
    32    32    33   ar
    33    32    31   ar
    34    31    30   ar
    35    30    29   ar
    36    27    28    1
    37    24    34   am
    38    34    35    2
    39    34    36    1
    40     1    37    1
    41     3    38    1
    42     4    39    1
    43     5    40    1
    44     6    41    1
    45     7    42    1
    46     9    43    1
    47    10    44    1
    48    11    45    1
    49    12    46    1
    50    13    47    1
    51    14    48    1
    52    14    49    1
    53    15    50    1
    54    15    51    1
    55    16    52    1
    56    17    53    1
    57    17    54    1
    58    18    55    1
    59    18    56    1
    60    19    57    1
    61    20    58    1
    62    20    59    1
    63    21    60    1
    64    21    61    1
    65    23    62    1
    66    23    63    1
    67    23    64    1
    68    24    65    1
    69    27    66    1
    70    27    67    1
    71    29    68    1
    72    30    69    1
    73    32    70    1
    74    33    71    1
    75    36    72    1
    76    36    73    1
    77    36    74    1
