@<TRIPOS>MOLECULE
CCR5_63
 82 85 0 0 0
SMALL
GASTEIGER

@<TRIPOS>ATOM
      1 C1         -3.9998    1.4019   -1.5091 C.3     1  BENZYL1111    0.0140
      2 C2         -4.4081    2.6651   -0.7199 C.ar    1  BENZYL1111   -0.0398
      3 C3         -5.7349    3.0996   -0.8394 C.ar    1  BENZYL1111   -0.0580
      4 C4         -6.1975    4.2117   -0.1307 C.ar    1  BENZYL1111   -0.0615
      5 C5         -5.3273    4.9182    0.7022 C.ar    1  BENZYL1111   -0.0617
      6 C6         -3.9956    4.5112    0.8109 C.ar    1  BENZYL1111   -0.0615
      7 C7         -3.5369    3.3995    0.0975 C.ar    1  BENZYL1111   -0.0580
      8 C          -5.0057    0.2578   -1.2860 C.ar    2  PHENYL2222   -0.0397
      9 C          -5.6207    0.0715   -0.0417 C.ar    2  PHENYL2222   -0.0572
     10 C          -6.5274   -0.9744    0.1514 C.ar    2  PHENYL2222   -0.0475
     11 C          -6.8276   -1.8493   -0.8959 C.ar    2  PHENYL2222    0.0590
     12 C          -6.2440   -1.6457   -2.1498 C.ar    2  PHENYL2222   -0.0475
     13 C          -5.3197   -0.6137   -2.3356 C.ar    2  PHENYL2222   -0.0572
     14 C14        -2.5599    0.8551   -1.2804 C.3     1  BENZYL1111   -0.0017
     15 C15        -2.3621    0.2058    0.1191 C.3     1  BENZYL1111   -0.0310
     16 N16        -0.9329    0.1112    0.5208 N.4     3  CYCLOHEXYL3333    0.2353
     17 C2         -0.0556   -0.6590   -0.3963 C.3     3  CYCLOHEXYL3333   -0.0302
     18 C3          1.4319   -0.4914    0.0052 C.3     3  CYCLOHEXYL3333    0.0063
     19 C4          1.6647   -0.9246    1.4724 C.3     3  CYCLOHEXYL3333    0.0356
     20 C5          0.7052   -0.1230    2.3912 C.3     3  CYCLOHEXYL3333    0.0063
     21 C6         -0.7644   -0.3108    1.9356 C.3     3  CYCLOHEXYL3333   -0.0302
     22 N22         3.1083   -0.8029    1.7546 N.am    3  CYCLOHEXYL3333   -0.2980
     23 C23         3.7158    0.4548    2.2182 C.3     3  CYCLOHEXYL3333    0.0121
     24 C24         3.7938    0.5324    3.7656 C.3     3  CYCLOHEXYL3333   -0.0493
     25 C25         3.8938   -1.8881    1.4835 C.2     3  CYCLOHEXYL3333    0.2201
     26 O26         3.4113   -2.9300    1.0686 O.2     3  CYCLOHEXYL3333   -0.2752
     27 C27         5.3988   -1.9048    1.6377 C.3     3  CYCLOHEXYL3333    0.0493
     28 C           6.0871   -1.1269    0.5060 C.ar    4  PHENYL4444   -0.0385
     29 C           7.1891   -0.3064    0.7749 C.ar    4  PHENYL4444   -0.0563
     30 C           7.7790    0.4420   -0.2477 C.ar    4  PHENYL4444   -0.0366
     31 C           7.2745    0.3744   -1.5489 C.ar    4  PHENYL4444    0.0879
     32 C           6.2010   -0.4748   -1.8294 C.ar    4  PHENYL4444   -0.0366
     33 C           5.6138   -1.2265   -0.8076 C.ar    4  PHENYL4444   -0.0563
     34 S1          8.0298    1.3197   -2.8491 S.O2    5  SULFONYL5555   -0.0059
     35 O           7.0671    1.5197   -3.9144 O.2     5  SULFONYL5555   -0.1696
     36 O           8.7080    2.4648   -2.2741 O.2     5  SULFONYL5555   -0.1696
     37 C37        -7.7889   -2.9938   -0.6550 C.2     6  SULFONYL6666    0.3389
     38 O          -8.9480   -2.7171   -0.3968 O.2     6  SULFONYL6666   -0.2450
     39 O39        -7.4484   -4.2923   -0.6905 O.3     6  SULFONYL6666   -0.4645
     40 C40         9.2717    0.1478   -3.4162 C.3     5  SULFONYL5555    0.0596
     41 C41        -6.0402   -4.5584   -0.8366 C.3     6  SULFONYL6666    0.0820
     42 H          -4.0087    1.7501   -2.5208 H       1  BENZYL1111    0.0399
     43 H          -6.3815    2.5897   -1.4614 H       1  BENZYL1111    0.0620
     44 H          -7.1810    4.5105   -0.2228 H       1  BENZYL1111    0.0618
     45 H          -5.6658    5.7354    1.2338 H       1  BENZYL1111    0.0618
     46 H          -3.3471    5.0334    1.4206 H       1  BENZYL1111    0.0618
     47 H          -2.5473    3.1167    0.1733 H       1  BENZYL1111    0.0620
     48 H          -5.4028    0.7111    0.7383 H       2  PHENYL2222    0.0621
     49 H          -6.9772   -1.1011    1.0716 H       2  PHENYL2222    0.0626
     50 H          -6.4963   -2.2590   -2.9405 H       2  PHENYL2222    0.0626
     51 H          -4.8650   -0.4932   -3.2542 H       2  PHENYL2222    0.0621
     52 H          -1.8510    1.6456   -1.4124 H       1  BENZYL1111    0.0326
     53 H          -2.4047    0.0822   -2.0039 H       1  BENZYL1111    0.0326
     54 H          -2.8035   -0.7689    0.1288 H       1  BENZYL1111    0.0815
     55 H          -2.8443    0.8438    0.8299 H       1  BENZYL1111    0.0815
     56 H          -0.5998    1.0716    0.4372 H       3  CYCLOHEXYL3333    0.2033
     57 H          -0.2026   -0.3333   -1.4049 H       3  CYCLOHEXYL3333    0.0815
     58 H          -0.3130   -1.6950   -0.3231 H       3  CYCLOHEXYL3333    0.0815
     59 H           2.0540   -1.0661   -0.6487 H       3  CYCLOHEXYL3333    0.0335
     60 H           1.6870    0.5441   -0.0820 H       3  CYCLOHEXYL3333    0.0335
     61 H           1.4210   -1.9486    1.6644 H       3  CYCLOHEXYL3333    0.0504
     62 H           0.8185   -0.4403    3.4068 H       3  CYCLOHEXYL3333    0.0335
     63 H           0.9540    0.9153    2.3211 H       3  CYCLOHEXYL3333    0.0335
     64 H          -1.0562   -1.3338    2.0505 H       3  CYCLOHEXYL3333    0.0815
     65 H          -1.3904    0.3029    2.5491 H       3  CYCLOHEXYL3333    0.0815
     66 H           3.1582    1.2867    1.8416 H       3  CYCLOHEXYL3333    0.0462
     67 H           4.7176    0.4855    1.8436 H       3  CYCLOHEXYL3333    0.0462
     68 H           2.8056    0.5040    4.1749 H       3  CYCLOHEXYL3333    0.0245
     69 H           4.2939    1.4291    4.0668 H       3  CYCLOHEXYL3333    0.0245
     70 H           4.3505   -0.3046    4.1321 H       3  CYCLOHEXYL3333    0.0245
     71 H           5.7524   -2.9145    1.6535 H       3  CYCLOHEXYL3333    0.0407
     72 H           5.6416   -1.4260    2.5633 H       3  CYCLOHEXYL3333    0.0407
     73 H           7.5680   -0.2538    1.7334 H       4  PHENYL4444    0.0621
     74 H           8.5896    1.0463   -0.0410 H       4  PHENYL4444    0.0637
     75 H           5.8406   -0.5473   -2.7937 H       4  PHENYL4444    0.0637
     76 H           4.8269   -1.8585   -1.0229 H       4  PHENYL4444    0.0621
     77 H           9.8284    0.5792   -4.2217 H       5  SULFONYL5555    0.0468
     78 H           8.8055   -0.7615   -3.7334 H       5  SULFONYL5555    0.0468
     79 H           9.9374   -0.0772   -2.6093 H       5  SULFONYL5555    0.0468
     80 H          -5.8764   -5.6156   -0.8537 H       6  SULFONYL6666    0.0661
     81 H          -5.4934   -4.1118   -0.0325 H       6  SULFONYL6666    0.0661
     82 H          -5.6957   -4.1341   -1.7565 H       6  SULFONYL6666    0.0661
@<TRIPOS>BOND
     1     1     2    1
     2     2     3   ar
     3     2     7   ar
     4     7     6   ar
     5     6     5   ar
     6     5     4   ar
     7     4     3   ar
     8     8     9   ar
     9     8    13   ar
    10    13    12   ar
    11    12    11   ar
    12    11    10   ar
    13    10     9   ar
    14     1     8    1
    15     1    14    1
    16    14    15    1
    17    16    17    1
    18    16    21    1
    19    21    20    1
    20    20    19    1
    21    19    18    1
    22    18    17    1
    23    15    16    1
    24    19    22    1
    25    22    23    1
    26    23    24    1
    27    22    25   am
    28    25    26    2
    29    25    27    1
    30    28    29   ar
    31    28    33   ar
    32    33    32   ar
    33    32    31   ar
    34    31    30   ar
    35    30    29   ar
    36    27    28    1
    37    34    35    2
    38    34    36    2
    39    31    34    1
    40    37    38    2
    41    37    39    1
    42    11    37    1
    43    34    40    1
    44    39    41    1
    45     1    42    1
    46     3    43    1
    47     4    44    1
    48     5    45    1
    49     6    46    1
    50     7    47    1
    51     9    48    1
    52    10    49    1
    53    12    50    1
    54    13    51    1
    55    14    52    1
    56    14    53    1
    57    15    54    1
    58    15    55    1
    59    16    56    1
    60    17    57    1
    61    17    58    1
    62    18    59    1
    63    18    60    1
    64    19    61    1
    65    20    62    1
    66    20    63    1
    67    21    64    1
    68    21    65    1
    69    23    66    1
    70    23    67    1
    71    24    68    1
    72    24    69    1
    73    24    70    1
    74    27    71    1
    75    27    72    1
    76    29    73    1
    77    30    74    1
    78    32    75    1
    79    33    76    1
    80    40    77    1
    81    40    78    1
    82    40    79    1
    83    41    80    1
    84    41    81    1
    85    41    82    1
