@<TRIPOS>MOLECULE
CCR5_36
 72 75 0 0 0
SMALL
GASTEIGER

@<TRIPOS>ATOM
      1 C1         -4.0032    1.4123   -1.5052 C.3     1  BENZYL1111    0.0140
      2 C2         -4.4156    2.6742   -0.7158 C.ar    1  BENZYL1111   -0.0398
      3 C3         -5.7422    3.1076   -0.8401 C.ar    1  BENZYL1111   -0.0580
      4 C4         -6.2079    4.2205   -0.1345 C.ar    1  BENZYL1111   -0.0615
      5 C5         -5.3413    4.9279    0.7013 C.ar    1  BENZYL1111   -0.0617
      6 C6         -4.0103    4.5207    0.8167 C.ar    1  BENZYL1111   -0.0615
      7 C7         -3.5485    3.4083    0.1063 C.ar    1  BENZYL1111   -0.0580
      8 C          -4.9968    0.2581   -1.2797 C.ar    2  PHENYL2222   -0.0398
      9 C          -5.6307    0.0821   -0.0432 C.ar    2  PHENYL2222   -0.0580
     10 C          -6.5351   -0.9664    0.1476 C.ar    2  PHENYL2222   -0.0615
     11 C          -6.8114   -1.8517   -0.8974 C.ar    2  PHENYL2222   -0.0617
     12 C          -6.1793   -1.6857   -2.1324 C.ar    2  PHENYL2222   -0.0615
     13 C          -5.2753   -0.6362   -2.3203 C.ar    2  PHENYL2222   -0.0580
     14 C14        -2.5598    0.8738   -1.2794 C.3     1  BENZYL1111   -0.0017
     15 C15        -2.3626    0.2157    0.1161 C.3     1  BENZYL1111   -0.0310
     16 N16        -0.9333    0.1198    0.5172 N.4     3  CYCLOHEXYL3333    0.2353
     17 C2         -0.0614   -0.6569   -0.3996 C.3     3  CYCLOHEXYL3333   -0.0302
     18 C3          1.4275   -0.4980   -0.0002 C.3     3  CYCLOHEXYL3333    0.0063
     19 C4          1.6590   -0.9298    1.4675 C.3     3  CYCLOHEXYL3333    0.0356
     20 C5          0.7051   -0.1214    2.3861 C.3     3  CYCLOHEXYL3333    0.0063
     21 C6         -0.7659   -0.3017    1.9322 C.3     3  CYCLOHEXYL3333   -0.0302
     22 N22         3.1035   -0.8143    1.7473 N.am    3  CYCLOHEXYL3333   -0.2980
     23 C23         3.7178    0.4419    2.2052 C.3     3  CYCLOHEXYL3333    0.0121
     24 C24         3.7995    0.5234    3.7522 C.3     3  CYCLOHEXYL3333   -0.0493
     25 C25         3.8836   -1.9044    1.4794 C.2     3  CYCLOHEXYL3333    0.2201
     26 O26         3.3948   -2.9461    1.0713 O.2     3  CYCLOHEXYL3333   -0.2752
     27 C27         5.3891   -1.9265    1.6304 C.3     3  CYCLOHEXYL3333    0.0493
     28 C           6.0757   -1.1669    0.4853 C.ar    4  PHENYL4444   -0.0385
     29 C           7.1517   -0.3095    0.7368 C.ar    4  PHENYL4444   -0.0560
     30 C           7.7428    0.4116   -0.3050 C.ar    4  PHENYL4444   -0.0312
     31 C           7.2805    0.2874   -1.6231 C.ar    4  PHENYL4444    0.1262
     32 C           6.2196   -0.5954   -1.8703 C.ar    4  PHENYL4444   -0.0312
     33 C           5.6285   -1.3194   -0.8307 C.ar    4  PHENYL4444   -0.0560
     34 N           7.8458    1.0031   -2.6332 N.pl3   5  NO25555     0.0564
     35 O           7.4403    0.8236   -3.7613 O.2     5  NO25555    -0.1261
     36 O           8.7271    1.7884   -2.3574 O.2     5  NO25555    -0.1261
     37 H          -4.0216    1.7631   -2.5159 H       1  BENZYL1111    0.0399
     38 H          -6.3865    2.5963   -1.4634 H       1  BENZYL1111    0.0620
     39 H          -7.1910    4.5191   -0.2310 H       1  BENZYL1111    0.0618
     40 H          -5.6820    5.7460    1.2301 H       1  BENZYL1111    0.0618
     41 H          -3.3646    5.0432    1.4291 H       1  BENZYL1111    0.0618
     42 H          -2.5596    3.1247    0.1878 H       1  BENZYL1111    0.0620
     43 H          -5.4285    0.7315    0.7329 H       2  PHENYL2222    0.0620
     44 H          -6.9993   -1.0868    1.0614 H       2  PHENYL2222    0.0618
     45 H          -7.4799   -2.6254   -0.7576 H       2  PHENYL2222    0.0618
     46 H          -6.3800   -2.3383   -2.9063 H       2  PHENYL2222    0.0618
     47 H          -4.8093   -0.5196   -3.2337 H       2  PHENYL2222    0.0620
     48 H          -1.8560    1.6701   -1.4035 H       1  BENZYL1111    0.0326
     49 H          -2.3964    0.1086   -2.0092 H       1  BENZYL1111    0.0326
     50 H          -2.8032   -0.7594    0.1193 H       1  BENZYL1111    0.0815
     51 H          -2.8460    0.8483    0.8310 H       1  BENZYL1111    0.0815
     52 H          -0.5963    1.0788    0.4331 H       3  CYCLOHEXYL3333    0.2033
     53 H          -0.2076   -0.3318   -1.4085 H       3  CYCLOHEXYL3333    0.0815
     54 H          -0.3250   -1.6912   -0.3244 H       3  CYCLOHEXYL3333    0.0815
     55 H           2.0452   -1.0780   -0.6537 H       3  CYCLOHEXYL3333    0.0335
     56 H           1.6892    0.5356   -0.0899 H       3  CYCLOHEXYL3333    0.0335
     57 H           1.4096   -1.9520    1.6617 H       3  CYCLOHEXYL3333    0.0504
     58 H           0.8176   -0.4378    3.4020 H       3  CYCLOHEXYL3333    0.0335
     59 H           0.9597    0.9154    2.3143 H       3  CYCLOHEXYL3333    0.0335
     60 H          -1.0631   -1.3230    2.0484 H       3  CYCLOHEXYL3333    0.0815
     61 H          -1.3881    0.3159    2.5457 H       3  CYCLOHEXYL3333    0.0815
     62 H           3.1630    1.2752    1.8274 H       3  CYCLOHEXYL3333    0.0462
     63 H           4.7188    0.4673    1.8279 H       3  CYCLOHEXYL3333    0.0462
     64 H           2.8121    0.5003    4.1637 H       3  CYCLOHEXYL3333    0.0245
     65 H           4.3041    1.4188    4.0499 H       3  CYCLOHEXYL3333    0.0245
     66 H           4.3535   -0.3150    4.1198 H       3  CYCLOHEXYL3333    0.0245
     67 H           5.7382   -2.9376    1.6586 H       3  CYCLOHEXYL3333    0.0407
     68 H           5.6378   -1.4376    2.5491 H       3  CYCLOHEXYL3333    0.0407
     69 H           7.5120   -0.2084    1.6985 H       4  PHENYL4444    0.0621
     70 H           8.5315    1.0451   -0.1008 H       4  PHENYL4444    0.0640
     71 H           5.8699   -0.7125   -2.8341 H       4  PHENYL4444    0.0640
     72 H           4.8557   -1.9718   -1.0362 H       4  PHENYL4444    0.0621
@<TRIPOS>BOND
     1     1     2    1
     2     2     3   ar
     3     2     7   ar
     4     7     6   ar
     5     6     5   ar
     6     5     4   ar
     7     4     3   ar
     8     8     9   ar
     9     8    13   ar
    10    13    12   ar
    11    12    11   ar
    12    11    10   ar
    13    10     9   ar
    14     1     8    1
    15     1    14    1
    16    14    15    1
    17    16    17    1
    18    16    21    1
    19    21    20    1
    20    20    19    1
    21    19    18    1
    22    18    17    1
    23    15    16    1
    24    19    22    1
    25    22    23    1
    26    23    24    1
    27    22    25   am
    28    25    26    2
    29    25    27    1
    30    28    29   ar
    31    28    33   ar
    32    33    32   ar
    33    32    31   ar
    34    31    30   ar
    35    30    29   ar
    36    27    28    1
    37    34    35    2
    38    34    36    2
    39    31    34    1
    40     1    37    1
    41     3    38    1
    42     4    39    1
    43     5    40    1
    44     6    41    1
    45     7    42    1
    46     9    43    1
    47    10    44    1
    48    11    45    1
    49    12    46    1
    50    13    47    1
    51    14    48    1
    52    14    49    1
    53    15    50    1
    54    15    51    1
    55    16    52    1
    56    17    53    1
    57    17    54    1
    58    18    55    1
    59    18    56    1
    60    19    57    1
    61    20    58    1
    62    20    59    1
    63    21    60    1
    64    21    61    1
    65    23    62    1
    66    23    63    1
    67    24    64    1
    68    24    65    1
    69    24    66    1
    70    27    67    1
    71    27    68    1
    72    29    69    1
    73    30    70    1
    74    32    71    1
    75    33    72    1
