@<TRIPOS>MOLECULE
CCR5_40
 75 78 0 0 0
SMALL
GASTEIGER

@<TRIPOS>ATOM
      1 C1         -4.0160    1.4350   -1.5057 C.3     1  BENZYL1111    0.0140
      2 C2         -4.4377    2.6799   -0.6945 C.ar    1  BENZYL1111   -0.0398
      3 C3         -5.7758    3.0863   -0.7827 C.ar    1  BENZYL1111   -0.0580
      4 C4         -6.2491    4.1781   -0.0499 C.ar    1  BENZYL1111   -0.0615
      5 C5         -5.3789    4.8930    0.7757 C.ar    1  BENZYL1111   -0.0617
      6 C6         -4.0363    4.5157    0.8519 C.ar    1  BENZYL1111   -0.0615
      7 C7         -3.5668    3.4249    0.1137 C.ar    1  BENZYL1111   -0.0580
      8 C          -4.9965    0.2665   -1.2955 C.ar    2  PHENYL2222   -0.0398
      9 C          -5.6129    0.0556   -0.0556 C.ar    2  PHENYL2222   -0.0580
     10 C          -6.5088   -1.0028    0.1205 C.ar    2  PHENYL2222   -0.0615
     11 C          -6.7930   -1.8639   -0.9425 C.ar    2  PHENYL2222   -0.0617
     12 C          -6.1765   -1.6645   -2.1804 C.ar    2  PHENYL2222   -0.0615
     13 C          -5.2810   -0.6052   -2.3535 C.ar    2  PHENYL2222   -0.0580
     14 C14        -2.5666    0.9066   -1.2942 C.3     1  BENZYL1111   -0.0017
     15 C15        -2.3475    0.2533    0.1002 C.3     1  BENZYL1111   -0.0310
     16 N16        -0.9105    0.1627    0.4760 N.4     3  CYCLOHEXYL3333    0.2353
     17 C2         -0.0678   -0.6501   -0.4382 C.3     3  CYCLOHEXYL3333   -0.0302
     18 C3          1.4331   -0.5133   -0.0750 C.3     3  CYCLOHEXYL3333    0.0063
     19 C4          1.6743   -0.9087    1.4002 C.3     3  CYCLOHEXYL3333    0.0359
     20 C5          0.7690   -0.0404    2.3131 C.3     3  CYCLOHEXYL3333    0.0063
     21 C6         -0.7165   -0.2069    1.9029 C.3     3  CYCLOHEXYL3333   -0.0302
     22 N22         3.1178   -0.8334    1.6958 N.am    3  CYCLOHEXYL3333   -0.2940
     23 C1          3.7995    0.4443    1.9424 C.3     5  ALLYL5555    0.0329
     24 C2          4.0623    0.6139    3.4179 C.2     5  ALLYL5555   -0.0739
     25 C25         3.8371   -1.9944    1.6915 C.2     3  CYCLOHEXYL3333    0.2204
     26 O26         3.3180   -3.0678    1.4300 O.2     3  CYCLOHEXYL3333   -0.2752
     27 C27         5.3175   -2.0547    1.9956 C.3     3  CYCLOHEXYL3333    0.0493
     28 C           6.1876   -1.4612    0.8786 C.ar    4  PHENYL4444   -0.0384
     29 C           5.7966   -1.5689   -0.4613 C.ar    4  PHENYL4444   -0.0547
     30 C           6.5630   -0.9765   -1.4692 C.ar    4  PHENYL4444   -0.0194
     31 C           7.7341   -0.2879   -1.1446 C.ar    4  PHENYL4444    0.1300
     32 C           8.1497   -0.2114    0.1868 C.ar    4  PHENYL4444   -0.0194
     33 C           7.3797   -0.7987    1.1947 C.ar    4  PHENYL4444   -0.0547
     34 C3          5.2472    0.9962    3.9106 C.2     5  ALLYL5555   -0.1012
     35 O35         8.4857    0.3197   -2.1466 O.3     4  PHENYL4444   -0.4057
     36 C36         8.1204    1.6925   -2.3376 C.3     4  PHENYL4444    0.5752
     37 F37         8.8879    2.2107   -3.3327 F       4  PHENYL4444   -0.1328
     38 F38         6.8092    1.7843   -2.6907 F       4  PHENYL4444   -0.1328
     39 F39         8.3319    2.4021   -1.1958 F       4  PHENYL4444   -0.1328
     40 H          -4.0425    1.8030   -2.5101 H       1  BENZYL1111    0.0399
     41 H          -6.4229    2.5705   -1.3994 H       1  BENZYL1111    0.0620
     42 H          -7.2407    4.4557   -0.1188 H       1  BENZYL1111    0.0618
     43 H          -5.7254    5.6945    1.3257 H       1  BENZYL1111    0.0618
     44 H          -3.3877    5.0445    1.4559 H       1  BENZYL1111    0.0618
     45 H          -2.5692    3.1654    0.1641 H       1  BENZYL1111    0.0620
     46 H          -5.4040    0.6864    0.7340 H       2  PHENYL2222    0.0620
     47 H          -6.9609   -1.1484    1.0367 H       2  PHENYL2222    0.0618
     48 H          -7.4558   -2.6443   -0.8138 H       2  PHENYL2222    0.0618
     49 H          -6.3824   -2.2996   -2.9673 H       2  PHENYL2222    0.0618
     50 H          -4.8257   -0.4645   -3.2689 H       2  PHENYL2222    0.0620
     51 H          -1.8697    1.7073   -1.4287 H       1  BENZYL1111    0.0326
     52 H          -2.4074    0.1399   -2.0234 H       1  BENZYL1111    0.0326
     53 H          -2.7855   -0.7229    0.1134 H       1  BENZYL1111    0.0815
     54 H          -2.8221    0.8851    0.8216 H       1  BENZYL1111    0.0815
     55 H          -0.5636    1.1145    0.3571 H       3  CYCLOHEXYL3333    0.2033
     56 H          -0.2285   -0.3461   -1.4514 H       3  CYCLOHEXYL3333    0.0815
     57 H          -0.3478   -1.6771   -0.3296 H       3  CYCLOHEXYL3333    0.0815
     58 H           2.0245   -1.1278   -0.7211 H       3  CYCLOHEXYL3333    0.0335
     59 H           1.7219    0.5089   -0.2041 H       3  CYCLOHEXYL3333    0.0335
     60 H           1.3946   -1.9232    1.5937 H       3  CYCLOHEXYL3333    0.0504
     61 H           0.9021   -0.3198    3.3374 H       3  CYCLOHEXYL3333    0.0335
     62 H           1.0461    0.9867    2.1978 H       3  CYCLOHEXYL3333    0.0335
     63 H          -1.0314   -1.2163    2.0666 H       3  CYCLOHEXYL3333    0.0815
     64 H          -1.3105    0.4471    2.5065 H       3  CYCLOHEXYL3333    0.0815
     65 H           4.7194    0.4827    1.3972 H       5  ALLYL5555    0.0508
     66 H           3.1691    1.2423    1.6096 H       5  ALLYL5555    0.0508
     67 H           3.2924    0.4264    4.0791 H       5  ALLYL5555    0.0582
     68 H           5.6063   -3.0692    2.1752 H       3  CYCLOHEXYL3333    0.0407
     69 H           5.4804   -1.4566    2.8677 H       3  CYCLOHEXYL3333    0.0407
     70 H           4.9388   -2.0879   -0.7060 H       4  PHENYL4444    0.0622
     71 H           6.2632   -1.0480   -2.4541 H       4  PHENYL4444    0.0654
     72 H           9.0256    0.2789    0.4264 H       4  PHENYL4444    0.0654
     73 H           7.6915   -0.7437    2.1769 H       4  PHENYL4444    0.0622
     74 H           6.0337    1.1900    3.2711 H       5  ALLYL5555    0.0532
     75 H           5.3739    1.0971    4.9298 H       5  ALLYL5555    0.0532
@<TRIPOS>BOND
     1     1     2    1
     2     2     3   ar
     3     2     7   ar
     4     7     6   ar
     5     6     5   ar
     6     5     4   ar
     7     4     3   ar
     8     8     9   ar
     9     8    13   ar
    10    13    12   ar
    11    12    11   ar
    12    11    10   ar
    13    10     9   ar
    14     1     8    1
    15     1    14    1
    16    14    15    1
    17    16    17    1
    18    16    21    1
    19    21    20    1
    20    20    19    1
    21    19    18    1
    22    18    17    1
    23    15    16    1
    24    19    22    1
    25    23    24    1
    26    24    34    2
    27    22    25   am
    28    25    26    2
    29    25    27    1
    30    28    29   ar
    31    28    33   ar
    32    33    32   ar
    33    32    31   ar
    34    31    30   ar
    35    30    29   ar
    36    27    28    1
    37    22    23    1
    38    31    35    1
    39    35    36    1
    40    36    37    1
    41    36    38    1
    42    36    39    1
    43     1    40    1
    44     3    41    1
    45     4    42    1
    46     5    43    1
    47     6    44    1
    48     7    45    1
    49     9    46    1
    50    10    47    1
    51    11    48    1
    52    12    49    1
    53    13    50    1
    54    14    51    1
    55    14    52    1
    56    15    53    1
    57    15    54    1
    58    16    55    1
    59    17    56    1
    60    17    57    1
    61    18    58    1
    62    18    59    1
    63    19    60    1
    64    20    61    1
    65    20    62    1
    66    21    63    1
    67    21    64    1
    68    23    65    1
    69    23    66    1
    70    24    67    1
    71    27    68    1
    72    27    69    1
    73    29    70    1
    74    30    71    1
    75    32    72    1
    76    33    73    1
    77    34    74    1
    78    34    75    1
