@<TRIPOS>MOLECULE
CCR5_29
 73 76 0 0 0
SMALL
GASTEIGER

@<TRIPOS>ATOM
      1 C1         -3.9920    1.4323   -1.5019 C.3     1  BENZYL1111    0.0140
      2 C2         -4.4330    2.6813   -0.7074 C.ar    1  BENZYL1111   -0.0398
      3 C3         -5.7770    3.0671   -0.7993 C.ar    1  BENZYL1111   -0.0580
      4 C4         -6.2674    4.1559   -0.0732 C.ar    1  BENZYL1111   -0.0615
      5 C5         -5.4081    4.8906    0.7465 C.ar    1  BENZYL1111   -0.0617
      6 C6         -4.0588    4.5376    0.8214 C.ar    1  BENZYL1111   -0.0615
      7 C7         -3.5724    3.4500    0.0895 C.ar    1  BENZYL1111   -0.0580
      8 C          -4.9709    0.2607   -1.3016 C.ar    2  PHENYL2222   -0.0398
      9 C          -5.5980    0.0482   -0.0675 C.ar    2  PHENYL2222   -0.0580
     10 C          -6.4876   -1.0166    0.1020 C.ar    2  PHENYL2222   -0.0615
     11 C          -6.7557   -1.8812   -0.9623 C.ar    2  PHENYL2222   -0.0617
     12 C          -6.1309   -1.6780   -2.1954 C.ar    2  PHENYL2222   -0.0615
     13 C          -5.2417   -0.6124   -2.3620 C.ar    2  PHENYL2222   -0.0580
     14 C14        -2.5473    0.9053   -1.2571 C.3     1  BENZYL1111   -0.0017
     15 C15        -2.3505    0.2831    0.1546 C.3     1  BENZYL1111   -0.0310
     16 N16        -0.9118    0.1753    0.5181 N.4     3  CYCLOHEXYL3333    0.2353
     17 C2         -0.1419   -0.8156   -0.2751 C.3     3  CYCLOHEXYL3333   -0.0302
     18 C3          1.3751   -0.7190    0.0277 C.3     3  CYCLOHEXYL3333    0.0063
     19 C4          1.6532   -0.8988    1.5415 C.3     3  CYCLOHEXYL3333    0.0353
     20 C5          0.8250    0.1707    2.3008 C.3     3  CYCLOHEXYL3333    0.0063
     21 C6         -0.6827    0.0215    1.9772 C.3     3  CYCLOHEXYL3333   -0.0302
     22 N22         3.1122   -0.8656    1.7470 N.am    3  CYCLOHEXYL3333   -0.3008
     23 C23         3.8228    0.3530    2.1594 C.3     3  CYCLOHEXYL3333    0.0035
     24 C24         7.1959    2.2609   -2.1406 C.2     4  PHENYL4444    0.3389
     25 C25         3.8117   -1.9845    1.3967 C.2     3  CYCLOHEXYL3333    0.2199
     26 O26         3.2385   -3.0105    1.0667 O.2     3  CYCLOHEXYL3333   -0.2752
     27 C27         5.3215   -2.0442    1.3641 C.3     3  CYCLOHEXYL3333    0.0493
     28 C           5.8703   -0.9560    0.4314 C.ar    4  PHENYL4444   -0.0386
     29 C           6.9310   -0.1321    0.8234 C.ar    4  PHENYL4444   -0.0573
     30 C           7.3655    0.9020   -0.0112 C.ar    4  PHENYL4444   -0.0475
     31 C           6.7547    1.1173   -1.2516 C.ar    4  PHENYL4444    0.0590
     32 C           5.7271    0.2619   -1.6631 C.ar    4  PHENYL4444   -0.0475
     33 C           5.2957   -0.7749   -0.8313 C.ar    4  PHENYL4444   -0.0573
     34 O34         8.1017    2.9930   -1.7718 O.2     4  PHENYL4444   -0.2450
     35 O35         6.5810    2.4513   -3.3186 O.3     4  PHENYL4444   -0.4645
     36 C36         7.0821    3.5754   -4.0687 C.3     4  PHENYL4444    0.0820
     37 H          -4.0002    1.7970   -2.5078 H       1  BENZYL1111    0.0399
     38 H          -6.4156    2.5382   -1.4137 H       1  BENZYL1111    0.0620
     39 H          -7.2635    4.4167   -0.1427 H       1  BENZYL1111    0.0618
     40 H          -5.7675    5.6888    1.2931 H       1  BENZYL1111    0.0618
     41 H          -3.4179    5.0820    1.4197 H       1  BENZYL1111    0.0618
     42 H          -2.5697    3.2105    0.1362 H       1  BENZYL1111    0.0620
     43 H          -5.4019    0.6825    0.7226 H       2  PHENYL2222    0.0620
     44 H          -6.9469   -1.1643    1.0143 H       2  PHENYL2222    0.0618
     45 H          -7.4129   -2.6671   -0.8381 H       2  PHENYL2222    0.0618
     46 H          -6.3260   -2.3150   -2.9836 H       2  PHENYL2222    0.0618
     47 H          -4.7810   -0.4681   -3.2741 H       2  PHENYL2222    0.0620
     48 H          -1.8463    1.7010   -1.3993 H       1  BENZYL1111    0.0326
     49 H          -2.3796    0.1219   -1.9664 H       1  BENZYL1111    0.0326
     50 H          -2.8078   -0.6835    0.1922 H       1  BENZYL1111    0.0815
     51 H          -2.8172    0.9337    0.8644 H       1  BENZYL1111    0.0815
     52 H          -0.5296    1.0831    0.2531 H       3  CYCLOHEXYL3333    0.2033
     53 H          -0.3163   -0.6621   -1.3196 H       3  CYCLOHEXYL3333    0.0815
     54 H          -0.4749   -1.7942    0.0011 H       3  CYCLOHEXYL3333    0.0815
     55 H           1.9076   -1.4591   -0.5323 H       3  CYCLOHEXYL3333    0.0335
     56 H           1.7126    0.2544   -0.2611 H       3  CYCLOHEXYL3333    0.0335
     57 H           1.3383   -1.8415    1.9377 H       3  CYCLOHEXYL3333    0.0504
     58 H           0.9852    0.0791    3.3548 H       3  CYCLOHEXYL3333    0.0335
     59 H           1.1471    1.1400    1.9820 H       3  CYCLOHEXYL3333    0.0335
     60 H          -1.0375   -0.9325    2.3071 H       3  CYCLOHEXYL3333    0.0815
     61 H          -1.2227    0.7880    2.4928 H       3  CYCLOHEXYL3333    0.0815
     62 H           3.1128    1.1183    2.3941 H       3  CYCLOHEXYL3333    0.0429
     63 H           4.4777    0.6818    1.3797 H       3  CYCLOHEXYL3333    0.0429
     64 H           4.4109    0.1404    3.0277 H       3  CYCLOHEXYL3333    0.0429
     65 H           5.6454   -3.0095    1.0353 H       3  CYCLOHEXYL3333    0.0407
     66 H           5.6959   -1.8744    2.3520 H       3  CYCLOHEXYL3333    0.0407
     67 H           7.3945   -0.2883    1.7321 H       4  PHENYL4444    0.0621
     68 H           8.1424    1.5110    0.2898 H       4  PHENYL4444    0.0626
     69 H           5.2852    0.3972   -2.5859 H       4  PHENYL4444    0.0626
     70 H           4.5484   -1.4111   -1.1505 H       4  PHENYL4444    0.0621
     71 H           6.5435    3.6591   -4.9895 H       4  PHENYL4444    0.0661
     72 H           8.1279    3.4560   -4.2608 H       4  PHENYL4444    0.0661
     73 H           6.9432    4.4695   -3.4975 H       4  PHENYL4444    0.0661
@<TRIPOS>BOND
     1     1     2    1
     2     2     3   ar
     3     2     7   ar
     4     7     6   ar
     5     6     5   ar
     6     5     4   ar
     7     4     3   ar
     8     8     9   ar
     9     8    13   ar
    10    13    12   ar
    11    12    11   ar
    12    11    10   ar
    13    10     9   ar
    14     1     8    1
    15     1    14    1
    16    14    15    1
    17    16    17    1
    18    16    21    1
    19    21    20    1
    20    20    19    1
    21    19    18    1
    22    18    17    1
    23    15    16    1
    24    19    22    1
    25    22    23    1
    26    31    24    1
    27    22    25   am
    28    25    26    2
    29    25    27    1
    30    28    29   ar
    31    33    28   ar
    32    32    33   ar
    33    32    31   ar
    34    31    30   ar
    35    30    29   ar
    36    27    28    1
    37    24    34    2
    38    24    35    1
    39    35    36    1
    40     1    37    1
    41     3    38    1
    42     4    39    1
    43     5    40    1
    44     6    41    1
    45     7    42    1
    46     9    43    1
    47    10    44    1
    48    11    45    1
    49    12    46    1
    50    13    47    1
    51    14    48    1
    52    14    49    1
    53    15    50    1
    54    15    51    1
    55    16    52    1
    56    17    53    1
    57    17    54    1
    58    18    55    1
    59    18    56    1
    60    19    57    1
    61    20    58    1
    62    20    59    1
    63    21    60    1
    64    21    61    1
    65    23    62    1
    66    23    63    1
    67    23    64    1
    68    27    65    1
    69    27    66    1
    70    29    67    1
    71    30    68    1
    72    32    69    1
    73    33    70    1
    74    36    71    1
    75    36    72    1
    76    36    73    1
