@<TRIPOS>MOLECULE
CCR5_11
 67 70 0 0 0
SMALL
GASTEIGER

@<TRIPOS>ATOM
      1 C1         -3.9941    1.4303   -1.5038 C.3     1  BENZYL1111    0.0140
      2 C2         -4.4329    2.6759   -0.7024 C.ar    1  BENZYL1111   -0.0398
      3 C3         -5.7794    3.0560   -0.7781 C.ar    1  BENZYL1111   -0.0580
      4 C4         -6.2670    4.1393   -0.0419 C.ar    1  BENZYL1111   -0.0615
      5 C5         -5.4021    4.8752    0.7706 C.ar    1  BENZYL1111   -0.0617
      6 C6         -4.0501    4.5295    0.8277 C.ar    1  BENZYL1111   -0.0615
      7 C7         -3.5669    3.4471    0.0862 C.ar    1  BENZYL1111   -0.0580
      8 C          -4.9744    0.2588   -1.3094 C.ar    2  PHENYL2222   -0.0398
      9 C          -5.5958    0.0362   -0.0742 C.ar    2  PHENYL2222   -0.0580
     10 C          -6.4892   -1.0264    0.0892 C.ar    2  PHENYL2222   -0.0615
     11 C          -6.7666   -1.8790   -0.9823 C.ar    2  PHENYL2222   -0.0617
     12 C          -6.1465   -1.6667   -2.2162 C.ar    2  PHENYL2222   -0.0615
     13 C          -5.2531   -0.6036   -2.3764 C.ar    2  PHENYL2222   -0.0580
     14 C14        -2.5497    0.9008   -1.2621 C.3     1  BENZYL1111   -0.0017
     15 C15        -2.3486    0.2853    0.1518 C.3     1  BENZYL1111   -0.0310
     16 N16        -0.9077    0.1824    0.5082 N.4     3  CYCLOHEXYL3333    0.2353
     17 C2         -0.1474   -0.8315   -0.2654 C.3     3  CYCLOHEXYL3333   -0.0302
     18 C3          1.3725   -0.7353    0.0235 C.3     3  CYCLOHEXYL3333    0.0063
     19 C4          1.6580   -0.8787    1.5395 C.3     3  CYCLOHEXYL3333    0.0353
     20 C5          0.8445    0.2173    2.2764 C.3     3  CYCLOHEXYL3333    0.0063
     21 C6         -0.6669    0.0698    1.9693 C.3     3  CYCLOHEXYL3333   -0.0302
     22 N22         3.1176   -0.8613    1.7435 N.am    3  CYCLOHEXYL3333   -0.3008
     23 C23         3.8492    0.3579    2.1149 C.3     3  CYCLOHEXYL3333    0.0035
     24 F24         8.6332    1.3762    0.4522 F       4  PHENYL4444   -0.2055
     25 C25         3.7986   -2.0042    1.4370 C.2     3  CYCLOHEXYL3333    0.2199
     26 O26         3.2084   -3.0248    1.1205 O.2     3  CYCLOHEXYL3333   -0.2752
     27 C27         5.3068   -2.1033    1.4470 C.3     3  CYCLOHEXYL3333    0.0494
     28 C           5.9390   -1.0677    0.5064 C.ar    4  PHENYL4444   -0.0359
     29 C           7.0440   -0.3091    0.9102 C.ar    4  PHENYL4444   -0.0228
     30 C           7.5896    0.6524    0.0559 C.ar    4  PHENYL4444    0.1237
     31 C           7.0414    0.8551   -1.2126 C.ar    4  PHENYL4444   -0.0264
     32 C           5.9483    0.0900   -1.6283 C.ar    4  PHENYL4444   -0.0588
     33 C           5.4049   -0.8726   -0.7726 C.ar    4  PHENYL4444   -0.0579
     34 H          -4.0027    1.7998   -2.5079 H       1  BENZYL1111    0.0399
     35 H          -6.4222    2.5269   -1.3880 H       1  BENZYL1111    0.0620
     36 H          -7.2652    4.3951   -0.0987 H       1  BENZYL1111    0.0618
     37 H          -5.7594    5.6689    1.3250 H       1  BENZYL1111    0.0618
     38 H          -3.4049    5.0754    1.4199 H       1  BENZYL1111    0.0618
     39 H          -2.5623    3.2132    0.1196 H       1  BENZYL1111    0.0620
     40 H          -5.3926    0.6614    0.7213 H       2  PHENYL2222    0.0620
     41 H          -6.9444   -1.1813    1.0023 H       2  PHENYL2222    0.0618
     42 H          -7.4272   -2.6628   -0.8628 H       2  PHENYL2222    0.0618
     43 H          -6.3481   -2.2950   -3.0097 H       2  PHENYL2222    0.0618
     44 H          -4.7951   -0.4532   -3.2889 H       2  PHENYL2222    0.0620
     45 H          -1.8472    1.6940   -1.4113 H       1  BENZYL1111    0.0326
     46 H          -2.3870    0.1134   -1.9680 H       1  BENZYL1111    0.0326
     47 H          -2.8038   -0.6821    0.1953 H       1  BENZYL1111    0.0815
     48 H          -2.8151    0.9365    0.8612 H       1  BENZYL1111    0.0815
     49 H          -0.5241    1.0815    0.2170 H       3  CYCLOHEXYL3333    0.2033
     50 H          -0.3288   -0.7034   -1.3121 H       3  CYCLOHEXYL3333    0.0815
     51 H          -0.4826   -1.8012    0.0383 H       3  CYCLOHEXYL3333    0.0815
     52 H           1.8972   -1.4924   -0.5210 H       3  CYCLOHEXYL3333    0.0335
     53 H           1.7143    0.2280   -0.2930 H       3  CYCLOHEXYL3333    0.0335
     54 H           1.3350   -1.8089    1.9582 H       3  CYCLOHEXYL3333    0.0504
     55 H           1.0130    0.1531    3.3311 H       3  CYCLOHEXYL3333    0.0335
     56 H           1.1709    1.1753    1.9291 H       3  CYCLOHEXYL3333    0.0335
     57 H          -1.0257   -0.8715    2.3301 H       3  CYCLOHEXYL3333    0.0815
     58 H          -1.1968    0.8553    2.4664 H       3  CYCLOHEXYL3333    0.0815
     59 H           3.1528    1.1442    2.3188 H       3  CYCLOHEXYL3333    0.0429
     60 H           4.5130    0.6462    1.3268 H       3  CYCLOHEXYL3333    0.0429
     61 H           4.4299    0.1659    2.9929 H       3  CYCLOHEXYL3333    0.0429
     62 H           5.6097   -3.0889    1.1612 H       3  CYCLOHEXYL3333    0.0407
     63 H           5.6465   -1.9003    2.4411 H       3  CYCLOHEXYL3333    0.0407
     64 H           7.4576   -0.4608    1.8434 H       4  PHENYL4444    0.0649
     65 H           7.4426    1.5682   -1.8415 H       4  PHENYL4444    0.0646
     66 H           5.5427    0.2355   -2.5660 H       4  PHENYL4444    0.0619
     67 H           4.6043   -1.4434   -1.0861 H       4  PHENYL4444    0.0620
@<TRIPOS>BOND
     1     1     2    1
     2     2     3   ar
     3     2     7   ar
     4     7     6   ar
     5     6     5   ar
     6     5     4   ar
     7     4     3   ar
     8     8     9   ar
     9     8    13   ar
    10    13    12   ar
    11    12    11   ar
    12    11    10   ar
    13    10     9   ar
    14     1     8    1
    15     1    14    1
    16    14    15    1
    17    16    17    1
    18    16    21    1
    19    21    20    1
    20    20    19    1
    21    19    18    1
    22    18    17    1
    23    15    16    1
    24    19    22    1
    25    22    23    1
    26    30    24    1
    27    22    25   am
    28    25    26    2
    29    25    27    1
    30    28    29   ar
    31    33    28   ar
    32    32    33   ar
    33    31    32   ar
    34    31    30   ar
    35    30    29   ar
    36    27    28    1
    37     1    34    1
    38     3    35    1
    39     4    36    1
    40     5    37    1
    41     6    38    1
    42     7    39    1
    43     9    40    1
    44    10    41    1
    45    11    42    1
    46    12    43    1
    47    13    44    1
    48    14    45    1
    49    14    46    1
    50    15    47    1
    51    15    48    1
    52    16    49    1
    53    17    50    1
    54    17    51    1
    55    18    52    1
    56    18    53    1
    57    19    54    1
    58    20    55    1
    59    20    56    1
    60    21    57    1
    61    21    58    1
    62    23    59    1
    63    23    60    1
    64    23    61    1
    65    27    62    1
    66    27    63    1
    67    29    64    1
    68    31    65    1
    69    32    66    1
    70    33    67    1
