@<TRIPOS>MOLECULE
CCR5_67
 82 85 0 0 0
SMALL
GASTEIGER

@<TRIPOS>ATOM
      1 C1         -4.0008    1.4110   -1.5074 C.3     1  BENZYL1111    0.0140
      2 C2         -4.4146    2.6734   -0.7196 C.ar    1  BENZYL1111   -0.0398
      3 C3         -5.7402    3.1084   -0.8497 C.ar    1  BENZYL1111   -0.0580
      4 C4         -6.2086    4.2195   -0.1430 C.ar    1  BENZYL1111   -0.0615
      5 C5         -5.3456    4.9240    0.6989 C.ar    1  BENZYL1111   -0.0617
      6 C6         -4.0151    4.5164    0.8185 C.ar    1  BENZYL1111   -0.0615
      7 C7         -3.5504    3.4059    0.1071 C.ar    1  BENZYL1111   -0.0580
      8 C          -4.9948    0.2577   -1.2779 C.ar    2  PHENYL2222   -0.0397
      9 C          -5.6330    0.0891   -0.0427 C.ar    2  PHENYL2222   -0.0562
     10 C          -6.5424   -0.9548    0.1485 C.ar    2  PHENYL2222   -0.0366
     11 C          -6.8236   -1.8422   -0.8931 C.ar    2  PHENYL2222    0.0879
     12 C          -6.1769   -1.6896   -2.1220 C.ar    2  PHENYL2222   -0.0366
     13 C          -5.2694   -0.6437   -2.3132 C.ar    2  PHENYL2222   -0.0562
     14 C14        -2.5573    0.8737   -1.2798 C.3     1  BENZYL1111   -0.0017
     15 C15        -2.3613    0.2145    0.1155 C.3     1  BENZYL1111   -0.0310
     16 N16        -0.9326    0.1190    0.5187 N.4     3  CYCLOHEXYL3333    0.2353
     17 C2         -0.0563   -0.6493   -0.4012 C.3     3  CYCLOHEXYL3333   -0.0302
     18 C3          1.4311   -0.4896    0.0030 C.3     3  CYCLOHEXYL3333    0.0063
     19 C4          1.6603   -0.9310    1.4682 C.3     3  CYCLOHEXYL3333    0.0356
     20 C5          0.7030   -0.1298    2.3896 C.3     3  CYCLOHEXYL3333    0.0063
     21 C6         -0.7668   -0.3098    1.9318 C.3     3  CYCLOHEXYL3333   -0.0302
     22 N22         3.1044   -0.8163    1.7508 N.am    3  CYCLOHEXYL3333   -0.2980
     23 C23         3.7164    0.4362    2.2228 C.3     3  CYCLOHEXYL3333    0.0121
     24 C24         3.7954    0.5024    3.7705 C.3     3  CYCLOHEXYL3333   -0.0493
     25 C25         3.8859   -1.9023    1.4715 C.2     3  CYCLOHEXYL3333    0.2201
     26 O26         3.3994   -2.9400    1.0510 O.2     3  CYCLOHEXYL3333   -0.2752
     27 C27         5.3912   -1.9245    1.6226 C.3     3  CYCLOHEXYL3333    0.0493
     28 C           6.0790   -1.1389    0.4959 C.ar    4  PHENYL4444   -0.0385
     29 C           7.1864   -0.3270    0.7689 C.ar    4  PHENYL4444   -0.0563
     30 C           7.7756    0.4297   -0.2480 C.ar    4  PHENYL4444   -0.0366
     31 C           7.2649    0.3790   -1.5476 C.ar    4  PHENYL4444    0.0879
     32 C           6.1863   -0.4621   -1.8328 C.ar    4  PHENYL4444   -0.0366
     33 C           5.6002   -1.2224   -0.8168 C.ar    4  PHENYL4444   -0.0563
     34 S1          8.0181    1.3357   -2.8409 S.O2    5  SULFONYL5555   -0.0059
     35 O           7.0480    1.5602   -3.8946 O.2     5  SULFONYL5555   -0.1696
     36 O           8.7126    2.4658   -2.2556 O.2     5  SULFONYL5555   -0.1696
     37 S1         -7.9538   -3.1877   -0.6344 S.O2    6  SULFONYL6666   -0.0059
     38 O          -8.8984   -2.8229    0.4032 O.2     6  SULFONYL6666   -0.1696
     39 O          -8.4438   -3.6545   -1.9165 O.2     6  SULFONYL6666   -0.1696
     40 C40         9.2433    0.1600   -3.4355 C.3     5  SULFONYL5555    0.0596
     41 C41        -6.8279   -4.4239    0.0298 C.3     6  SULFONYL6666    0.0596
     42 H          -4.0179    1.7587   -2.5192 H       1  BENZYL1111    0.0399
     43 H          -6.3816    2.5997   -1.4781 H       1  BENZYL1111    0.0620
     44 H          -7.1911    4.5189   -0.2433 H       1  BENZYL1111    0.0618
     45 H          -5.6886    5.7403    1.2291 H       1  BENZYL1111    0.0618
     46 H          -3.3719    5.0373    1.4349 H       1  BENZYL1111    0.0618
     47 H          -2.5616    3.1225    0.1912 H       1  BENZYL1111    0.0620
     48 H          -5.4303    0.7403    0.7318 H       2  PHENYL2222    0.0621
     49 H          -7.0078   -1.0705    1.0623 H       2  PHENYL2222    0.0637
     50 H          -6.3697   -2.3507   -2.8906 H       2  PHENYL2222    0.0637
     51 H          -4.7981   -0.5352   -3.2249 H       2  PHENYL2222    0.0621
     52 H          -1.8541    1.6708   -1.4022 H       1  BENZYL1111    0.0326
     53 H          -2.3922    0.1092   -2.0100 H       1  BENZYL1111    0.0326
     54 H          -2.8014   -0.7608    0.1174 H       1  BENZYL1111    0.0815
     55 H          -2.8458    0.8465    0.8302 H       1  BENZYL1111    0.0815
     56 H          -0.5978    1.0793    0.4406 H       3  CYCLOHEXYL3333    0.2033
     57 H          -0.2007   -0.3177   -1.4082 H       3  CYCLOHEXYL3333    0.0815
     58 H          -0.3175   -1.6847   -0.3336 H       3  CYCLOHEXYL3333    0.0815
     59 H           2.0518   -1.0635   -0.6530 H       3  CYCLOHEXYL3333    0.0335
     60 H           1.6904    0.5453   -0.0787 H       3  CYCLOHEXYL3333    0.0335
     61 H           1.4120   -1.9547    1.6563 H       3  CYCLOHEXYL3333    0.0504
     62 H           0.8140   -0.4520    3.4039 H       3  CYCLOHEXYL3333    0.0335
     63 H           0.9559    0.9078    2.3244 H       3  CYCLOHEXYL3333    0.0335
     64 H          -1.0627   -1.3322    2.0420 H       3  CYCLOHEXYL3333    0.0815
     65 H          -1.3909    0.3038    2.5474 H       3  CYCLOHEXYL3333    0.0815
     66 H           3.1613    1.2726    1.8524 H       3  CYCLOHEXYL3333    0.0462
     67 H           4.7180    0.4664    1.8477 H       3  CYCLOHEXYL3333    0.0462
     68 H           2.8073    0.4742    4.1801 H       3  CYCLOHEXYL3333    0.0245
     69 H           4.2985    1.3953    4.0779 H       3  CYCLOHEXYL3333    0.0245
     70 H           4.3496   -0.3390    4.1307 H       3  CYCLOHEXYL3333    0.0245
     71 H           5.7421   -2.9353    1.6291 H       3  CYCLOHEXYL3333    0.0407
     72 H           5.6374   -1.4544    2.5517 H       3  CYCLOHEXYL3333    0.0407
     73 H           7.5698   -0.2870    1.7262 H       4  PHENYL4444    0.0621
     74 H           8.5902    1.0276   -0.0383 H       4  PHENYL4444    0.0637
     75 H           5.8213   -0.5222   -2.7962 H       4  PHENYL4444    0.0637
     76 H           4.8099   -1.8489   -1.0357 H       4  PHENYL4444    0.0621
     77 H           9.7973    0.5974   -4.2397 H       5  SULFONYL5555    0.0468
     78 H           8.7653   -0.7401   -3.7615 H       5  SULFONYL5555    0.0468
     79 H           9.9138   -0.0830   -2.6378 H       5  SULFONYL5555    0.0468
     80 H          -7.3693   -5.3216    0.2443 H       6  SULFONYL6666    0.0468
     81 H          -6.3548   -4.0559    0.9161 H       6  SULFONYL6666    0.0468
     82 H          -6.0699   -4.6350   -0.6953 H       6  SULFONYL6666    0.0468
@<TRIPOS>BOND
     1     1     2    1
     2     2     3   ar
     3     2     7   ar
     4     7     6   ar
     5     6     5   ar
     6     5     4   ar
     7     4     3   ar
     8     8     9   ar
     9     8    13   ar
    10    13    12   ar
    11    12    11   ar
    12    11    10   ar
    13    10     9   ar
    14     1     8    1
    15     1    14    1
    16    14    15    1
    17    16    17    1
    18    16    21    1
    19    21    20    1
    20    20    19    1
    21    19    18    1
    22    18    17    1
    23    15    16    1
    24    19    22    1
    25    22    23    1
    26    23    24    1
    27    22    25   am
    28    25    26    2
    29    25    27    1
    30    28    29   ar
    31    28    33   ar
    32    33    32   ar
    33    32    31   ar
    34    31    30   ar
    35    30    29   ar
    36    27    28    1
    37    34    35    2
    38    34    36    2
    39    31    34    1
    40    37    38    2
    41    37    39    2
    42    11    37    1
    43    34    40    1
    44    37    41    1
    45     1    42    1
    46     3    43    1
    47     4    44    1
    48     5    45    1
    49     6    46    1
    50     7    47    1
    51     9    48    1
    52    10    49    1
    53    12    50    1
    54    13    51    1
    55    14    52    1
    56    14    53    1
    57    15    54    1
    58    15    55    1
    59    16    56    1
    60    17    57    1
    61    17    58    1
    62    18    59    1
    63    18    60    1
    64    19    61    1
    65    20    62    1
    66    20    63    1
    67    21    64    1
    68    21    65    1
    69    23    66    1
    70    23    67    1
    71    24    68    1
    72    24    69    1
    73    24    70    1
    74    27    71    1
    75    27    72    1
    76    29    73    1
    77    30    74    1
    78    32    75    1
    79    33    76    1
    80    40    77    1
    81    40    78    1
    82    40    79    1
    83    41    80    1
    84    41    81    1
    85    41    82    1
