@<TRIPOS>MOLECULE
CCR5_08
 67 70 0 0 0
SMALL
GASTEIGER

@<TRIPOS>ATOM
      1 C1         -4.0001    1.4076   -1.5123 C.3     1  BENZYL1111    0.0140
      2 C2         -4.4168    2.6631   -0.7145 C.ar    1  BENZYL1111   -0.0398
      3 C3         -5.7542    3.0721   -0.8017 C.ar    1  BENZYL1111   -0.0580
      4 C4         -6.2236    4.1681   -0.0725 C.ar    1  BENZYL1111   -0.0615
      5 C5         -5.3496    4.8862    0.7462 C.ar    1  BENZYL1111   -0.0617
      6 C6         -4.0065    4.5097    0.8170 C.ar    1  BENZYL1111   -0.0615
      7 C7         -3.5410    3.4152    0.0818 C.ar    1  BENZYL1111   -0.0580
      8 C          -4.9924    0.2493   -1.2999 C.ar    2  PHENYL2222   -0.0398
      9 C          -5.6173    0.0515   -0.0621 C.ar    2  PHENYL2222   -0.0580
     10 C          -6.5225   -0.9986    0.1160 C.ar    2  PHENYL2222   -0.0615
     11 C          -6.8086   -1.8638   -0.9431 C.ar    2  PHENYL2222   -0.0617
     12 C          -6.1846   -1.6768   -2.1792 C.ar    2  PHENYL2222   -0.0615
     13 C          -5.2794   -0.6261   -2.3542 C.ar    2  PHENYL2222   -0.0580
     14 C14        -2.5584    0.8663   -1.2810 C.3     1  BENZYL1111   -0.0017
     15 C15        -2.3557    0.2454    0.1303 C.3     1  BENZYL1111   -0.0310
     16 N16        -0.9185    0.1660    0.5066 N.4     3  CYCLOHEXYL3333    0.2353
     17 C2         -0.1046   -0.7624   -0.3182 C.3     3  CYCLOHEXYL3333   -0.0302
     18 C3          1.4040   -0.6405    0.0193 C.3     3  CYCLOHEXYL3333    0.0063
     19 C4          1.6548   -0.8837    1.5287 C.3     3  CYCLOHEXYL3333    0.0353
     20 C5          0.7882    0.1325    2.3176 C.3     3  CYCLOHEXYL3333    0.0063
     21 C6         -0.7090   -0.0429    1.9619 C.3     3  CYCLOHEXYL3333   -0.0302
     22 N22         3.1069   -0.8457    1.7801 N.am    3  CYCLOHEXYL3333   -0.3008
     23 C23         3.7974    0.3580    2.2639 C.3     3  CYCLOHEXYL3333    0.0035
     24 Cl24        8.8544    1.9005    1.1203 Cl      4  PHENYL4444   -0.0820
     25 C25         3.8269   -1.9473    1.4169 C.2     3  CYCLOHEXYL3333    0.2199
     26 O26         3.2752   -2.9528    0.9988 O.2     3  CYCLOHEXYL3333   -0.2752
     27 C27         5.3352   -2.0158    1.4868 C.3     3  CYCLOHEXYL3333    0.0493
     28 C           5.9801   -0.8957    0.6593 C.ar    4  PHENYL4444   -0.0372
     29 C           7.0180   -0.1172    1.1846 C.ar    4  PHENYL4444   -0.0383
     30 C           7.5707    0.9244    0.4343 C.ar    4  PHENYL4444    0.0595
     31 C           7.0989    1.1834   -0.8560 C.ar    4  PHENYL4444    0.0593
     32 C           6.0772    0.3957   -1.3925 C.ar    4  PHENYL4444   -0.0417
     33 C           5.5228   -0.6426   -0.6387 C.ar    4  PHENYL4444   -0.0566
     34 Cl34        7.7805    2.4888   -1.8057 Cl      4  PHENYL4444   -0.0820
     35 H          -4.0148    1.7678   -2.5198 H       1  BENZYL1111    0.0399
     36 H          -6.4037    2.5552   -1.4149 H       1  BENZYL1111    0.0620
     37 H          -7.2151    4.4464   -0.1391 H       1  BENZYL1111    0.0618
     38 H          -5.6937    5.6895    1.2951 H       1  BENZYL1111    0.0618
     39 H          -3.3547    5.0417    1.4146 H       1  BENZYL1111    0.0618
     40 H          -2.5425    3.1581    0.1256 H       1  BENZYL1111    0.0620
     41 H          -5.4078    0.6859    0.7244 H       2  PHENYL2222    0.0620
     42 H          -6.9801   -1.1350    1.0309 H       2  PHENYL2222    0.0618
     43 H          -7.4783   -2.6381   -0.8129 H       2  PHENYL2222    0.0618
     44 H          -6.3921   -2.3147   -2.9634 H       2  PHENYL2222    0.0618
     45 H          -4.8188   -0.4945   -3.2683 H       2  PHENYL2222    0.0620
     46 H          -1.8506    1.6545   -1.4314 H       1  BENZYL1111    0.0326
     47 H          -2.4047    0.0803   -1.9906 H       1  BENZYL1111    0.0326
     48 H          -2.7932   -0.7305    0.1630 H       1  BENZYL1111    0.0815
     49 H          -2.8392    0.8868    0.8372 H       1  BENZYL1111    0.0815
     50 H          -0.5581    1.0937    0.2833 H       3  CYCLOHEXYL3333    0.2033
     51 H          -0.2634   -0.5621   -1.3572 H       3  CYCLOHEXYL3333    0.0815
     52 H          -0.4146   -1.7622   -0.0962 H       3  CYCLOHEXYL3333    0.0815
     53 H           1.9669   -1.3400   -0.5626 H       3  CYCLOHEXYL3333    0.0335
     54 H           1.7222    0.3531   -0.2184 H       3  CYCLOHEXYL3333    0.0335
     55 H           1.3495   -1.8510    1.8694 H       3  CYCLOHEXYL3333    0.0504
     56 H           0.9339    0.0012    3.3695 H       3  CYCLOHEXYL3333    0.0335
     57 H           1.0901    1.1223    2.0457 H       3  CYCLOHEXYL3333    0.0335
     58 H          -1.0430   -1.0190    2.2456 H       3  CYCLOHEXYL3333    0.0815
     59 H          -1.2780    0.6866    2.4995 H       3  CYCLOHEXYL3333    0.0815
     60 H           3.0766    1.1129    2.4994 H       3  CYCLOHEXYL3333    0.0429
     61 H           4.4805    0.7165    1.5224 H       3  CYCLOHEXYL3333    0.0429
     62 H           4.3526    0.1146    3.1456 H       3  CYCLOHEXYL3333    0.0429
     63 H           5.6741   -2.9689    1.1381 H       3  CYCLOHEXYL3333    0.0407
     64 H           5.6276   -1.8863    2.5079 H       3  CYCLOHEXYL3333    0.0407
     65 H           7.3774   -0.3136    2.1319 H       4  PHENYL4444    0.0635
     66 H           5.7313    0.5808   -2.3470 H       4  PHENYL4444    0.0633
     67 H           4.7724   -1.2255   -1.0415 H       4  PHENYL4444    0.0621
@<TRIPOS>BOND
     1     1     2    1
     2     2     3   ar
     3     2     7   ar
     4     7     6   ar
     5     6     5   ar
     6     5     4   ar
     7     4     3   ar
     8     8     9   ar
     9     8    13   ar
    10    13    12   ar
    11    12    11   ar
    12    11    10   ar
    13    10     9   ar
    14     1     8    1
    15     1    14    1
    16    14    15    1
    17    16    17    1
    18    16    21    1
    19    21    20    1
    20    20    19    1
    21    19    18    1
    22    18    17    1
    23    15    16    1
    24    19    22    1
    25    22    23    1
    26    30    24    1
    27    22    25   am
    28    25    26    2
    29    25    27    1
    30    28    29   ar
    31    33    28   ar
    32    32    33   ar
    33    31    32   ar
    34    31    30   ar
    35    30    29   ar
    36    27    28    1
    37    31    34    1
    38     1    35    1
    39     3    36    1
    40     4    37    1
    41     5    38    1
    42     6    39    1
    43     7    40    1
    44     9    41    1
    45    10    42    1
    46    11    43    1
    47    12    44    1
    48    13    45    1
    49    14    46    1
    50    14    47    1
    51    15    48    1
    52    15    49    1
    53    16    50    1
    54    17    51    1
    55    17    52    1
    56    18    53    1
    57    18    54    1
    58    19    55    1
    59    20    56    1
    60    20    57    1
    61    21    58    1
    62    21    59    1
    63    23    60    1
    64    23    61    1
    65    23    62    1
    66    27    63    1
    67    27    64    1
    68    29    65    1
    69    32    66    1
    70    33    67    1
