@<TRIPOS>MOLECULE
cpd_33
 45 48 0 0 0
SMALL
GASTEIGER
Energy = 0

@<TRIPOS>ATOM
      1 C1         -1.2946    0.5600    0.0854 C.ar    1  <0>1        0.2176
      2 N1         -2.4768    0.8150   -0.5141 N.ar    1  <0>1       -0.2228
      3 C2         -2.6906    1.9708   -1.1745 C.ar    1  <0>1        0.0326
      4 C3         -1.6809    2.9338   -1.2287 C.ar    1  <0>1       -0.0253
      5 C4         -0.4551    2.6352   -0.6308 C.ar    1  <0>1        0.0326
      6 N2         -0.2759    1.4374   -0.0389 N.ar    1  <0>1       -0.2228
      7 N3         -1.1209   -0.5621    0.8271 N.pl3   1  <0>1       -0.3032
      8 C5          0.2323   -1.0701    1.0573 C.3     1  <0>1        0.0000
      9 C6          0.2866   -2.6059    1.2729 C.3     1  <0>1       -0.0738
     10 N4         -0.7554   -3.0387    2.2405 N.4     1  <0>1        0.3854
     11 C7         -2.0940   -2.7367    1.6677 C.3     1  <0>1       -0.0738
     12 C8         -2.2764   -1.2127    1.4489 C.3     1  <0>1        0.0000
     13 C9         -0.6167   -4.4677    2.6406 C.3     1  <0>1       -0.0472
     14 H1         -3.6454    2.1457   -1.6582 H       1  <0>1        0.0831
     15 H2         -1.8431    3.8871   -1.7208 H       1  <0>1        0.0648
     16 H3          0.3542    3.3574   -0.6371 H       1  <0>1        0.0831
     17 H4          0.9081   -0.8130    0.2236 H       1  <0>1        0.0446
     18 H5          0.6072   -0.5677    1.9631 H       1  <0>1        0.0446
     19 H6          0.1401   -3.1111    0.3031 H       1  <0>1        0.0074
     20 H7          1.2969   -2.8723    1.6308 H       1  <0>1        0.0074
     21 H8         -2.2196   -3.2550    0.7015 H       1  <0>1        0.0074
     22 H9         -2.9086   -3.0793    2.3297 H       1  <0>1        0.0074
     23 H10        -3.2093   -1.0537    0.8824 H       1  <0>1        0.0446
     24 H11        -2.3989   -0.7308    2.4324 H       1  <0>1        0.0446
     25 H12         0.3886   -4.6688    3.0466 H       1  <0>1        0.0121
     26 H13        -0.7622   -5.1223    1.7657 H       1  <0>1        0.0121
     27 C10        -3.0644   -4.3161    6.9864 C.ar    1  <0>1        0.0172
     28 C11        -4.0233   -5.0909    7.6488 C.ar    1  <0>1       -0.0511
     29 C12        -2.5489   -3.1813    7.6264 C.ar    1  <0>1       -0.0511
     30 C13        -4.4687   -4.7348    8.9255 C.ar    1  <0>1       -0.0611
     31 C14        -2.9887   -2.8256    8.9040 C.ar    1  <0>1       -0.0611
     32 C15        -3.9514   -3.6000    9.5549 C.ar    1  <0>1       -0.0617
     33 H14        -4.4306   -5.9783    7.1740 H       1  <0>1        0.0625
     34 H15        -1.8068   -2.5562    7.1441 H       1  <0>1        0.0625
     35 H16        -5.2165   -5.3401    9.4277 H       1  <0>1        0.0618
     36 H17        -2.5829   -1.9445    9.3918 H       1  <0>1        0.0618
     37 H18        -4.2982   -3.3201   10.5447 H       1  <0>1        0.0618
     38 C16        -1.6081   -4.8280    3.7220 C.ar    1  <0>1        0.0192
     39 N5         -1.6524   -4.2257    4.8900 N.ar    1  <0>1       -0.3434
     40 N6         -3.1875   -5.6316    4.9404 N.ar    1  <0>1       -0.2359
     41 C17        -2.5658   -5.7742    3.6510 C.ar    1  <0>1        0.0472
     42 C18        -2.6205   -4.7213    5.5949 C.ar    1  <0>1        0.1383
     43 H19        -1.0165   -3.4744    5.1900 H       1  <0>1        0.1670
     44 H20        -2.8118   -6.4593    2.8412 H       1  <0>1        0.0847
     45 H21        -0.6461   -2.4866    3.0767 H       1  <0>1       -0.0812
@<TRIPOS>BOND
     1     1     2   ar
     2     5     6   ar
     3     9    10    1
     4    38    39   ar
     5     1     7    1
     6     1     6   ar
     7     2     3   ar
     8     3    14    1
     9     3     4   ar
    10     4     5   ar
    11     4    15    1
    12     5    16    1
    13     7    12    1
    14     7     8    1
    15     8     9    1
    16     8    17    1
    17     8    18    1
    18     9    19    1
    19     9    20    1
    20    10    13    1
    21    10    11    1
    22    10    45    1
    23    11    21    1
    24    11    22    1
    25    11    12    1
    26    12    23    1
    27    12    24    1
    28    13    26    1
    29    13    25    1
    30    13    38    1
    31    27    42    1
    32    27    28   ar
    33    27    29   ar
    34    28    33    1
    35    28    30   ar
    36    29    34    1
    37    29    31   ar
    38    30    35    1
    39    30    32   ar
    40    31    32   ar
    41    31    36    1
    42    32    37    1
    43    38    41   ar
    44    39    42   ar
    45    39    43    1
    46    40    41   ar
    47    40    42   ar
    48    41    44    1
