@<TRIPOS>MOLECULE
cpd_18
 46 49 0 0 0
SMALL
GASTEIGER
Energy = 0

@<TRIPOS>ATOM
      1 C1         -1.2881    0.5671    0.1281 C.ar    1  <0>1        0.1211
      2 N1         -2.4030    0.6765   -0.6265 N.ar    1  <0>1       -0.2403
      3 C2         -2.6797    1.7862   -1.3421 C.ar    1  <0>1        0.0297
      4 C3         -1.7959    2.8682   -1.3389 C.ar    1  <0>1       -0.0435
      5 C4         -0.6225    2.7789   -0.5874 C.ar    1  <0>1       -0.0571
      6 C5         -0.3672    1.6221    0.1526 C.ar    1  <0>1       -0.0217
      7 N2         -1.0918   -0.5573    0.8643 N.pl3   1  <0>1       -0.3187
      8 C6          0.2586   -1.0931    1.0571 C.3     1  <0>1       -0.0014
      9 C7          0.2995   -2.6316    1.2662 C.3     1  <0>1       -0.0739
     10 N3         -0.7303   -3.0525    2.2515 N.4     1  <0>1        0.3854
     11 C8         -2.0724   -2.7394    1.6942 C.3     1  <0>1       -0.0739
     12 C9         -2.2429   -1.2112    1.4916 C.3     1  <0>1       -0.0014
     13 C10        -0.5937   -4.4798    2.6580 C.3     1  <0>1       -0.0472
     14 H1         -3.5957    1.8314   -1.9210 H       1  <0>1        0.0830
     15 H2          0.0842    3.6029   -0.5750 H       1  <0>1        0.0619
     16 H3          0.9133   -0.8420    0.2051 H       1  <0>1        0.0445
     17 H4          0.6654   -0.6076    1.9589 H       1  <0>1        0.0445
     18 H5          0.1324   -3.1365    0.2992 H       1  <0>1        0.0074
     19 H6          1.3119   -2.9118    1.6076 H       1  <0>1        0.0074
     20 H7         -2.2129   -3.2537    0.7278 H       1  <0>1        0.0074
     21 H8         -2.8813   -3.0804    2.3632 H       1  <0>1        0.0074
     22 H9         -3.1803   -1.0408    0.9366 H       1  <0>1        0.0445
     23 H10        -2.3536   -0.7366    2.4799 H       1  <0>1        0.0445
     24 H11         0.4106   -4.6796    3.0674 H       1  <0>1        0.0121
     25 H12        -0.7363   -5.1363    1.7838 H       1  <0>1        0.0121
     26 C11        -3.0943   -4.3079    6.9761 C.ar    1  <0>1        0.0172
     27 C12        -4.0437   -5.0932    7.6395 C.ar    1  <0>1       -0.0511
     28 C13        -2.6117   -3.1518    7.6037 C.ar    1  <0>1       -0.0511
     29 C14        -4.5128   -4.7272    8.9043 C.ar    1  <0>1       -0.0611
     30 C15        -3.0756   -2.7855    8.8705 C.ar    1  <0>1       -0.0611
     31 C16        -4.0293   -3.5713    9.5217 C.ar    1  <0>1       -0.0617
     32 H13        -4.4252   -5.9973    7.1743 H       1  <0>1        0.0625
     33 H14        -1.8777   -2.5183    7.1207 H       1  <0>1        0.0625
     34 H15        -5.2530   -5.3413    9.4077 H       1  <0>1        0.0618
     35 H16        -2.6953   -1.8883    9.3487 H       1  <0>1        0.0618
     36 H17        -4.3941   -3.2833   10.5028 H       1  <0>1        0.0618
     37 C17        -1.5894   -4.8402    3.7362 C.ar    1  <0>1        0.0192
     38 N4         -1.6588   -4.2215    4.8949 N.ar    1  <0>1       -0.3434
     39 N5         -3.1676   -5.6551    4.9493 N.ar    1  <0>1       -0.2359
     40 C18        -2.5284   -5.8051    3.6694 C.ar    1  <0>1        0.0472
     41 C19        -2.6261   -4.7252    5.5963 C.ar    1  <0>1        0.1383
     42 H18        -1.0416   -3.4543    5.1918 H       1  <0>1        0.1670
     43 H19        -2.7519   -6.5073    2.8674 H       1  <0>1        0.0847
     44 H20        -2.0173    3.7644   -1.9103 H       1  <0>1        0.0633
     45 H21         0.5387    1.5653    0.7459 H       1  <0>1        0.0652
     46 H22        -0.6052   -2.4971    3.0833 H       1  <0>1       -0.0812
@<TRIPOS>BOND
     1     1     2   ar
     2     5     6   ar
     3     9    10    1
     4    37    38   ar
     5     1     7    1
     6     1     6   ar
     7     2     3   ar
     8     3    14    1
     9     3     4   ar
    10     4     5   ar
    11     5    15    1
    12     7    12    1
    13     7     8    1
    14     8     9    1
    15     8    16    1
    16     8    17    1
    17     9    18    1
    18     9    19    1
    19    10    13    1
    20    10    11    1
    21    10    46    1
    22    11    20    1
    23    11    21    1
    24    11    12    1
    25    12    22    1
    26    12    23    1
    27    13    25    1
    28    13    24    1
    29    13    37    1
    30    26    41    1
    31    26    27   ar
    32    26    28   ar
    33    27    32    1
    34    27    29   ar
    35    28    33    1
    36    28    30   ar
    37    29    34    1
    38    29    31   ar
    39    30    31   ar
    40    30    35    1
    41    31    36    1
    42    37    40   ar
    43    38    41   ar
    44    38    42    1
    45    39    40   ar
    46    39    41   ar
    47    40    43    1
    48     4    44    1
    49     6    45    1
