@<TRIPOS>MOLECULE
cpd_29
 47 50 0 0 0
SMALL
GASTEIGER
Energy = 0

@<TRIPOS>ATOM
      1 N1         -1.4032   -2.5967    3.0061 N.4     1  <0>1        0.3856
      2 C1         -0.4722   -2.4117    1.8459 C.3     1  <0>1       -0.0599
      3 C2         -1.7103   -4.0520    3.1952 C.3     1  <0>1       -0.0622
      4 C3         -0.1478   -0.9266    1.6297 C.3     1  <0>1        0.0780
      5 C4          0.7340   -0.7227    0.3908 C.3     1  <0>1        0.1139
      6 O1          1.1260    0.6516    0.3365 O.3     1  <0>1       -0.4895
      7 C5          1.9076    1.1021   -0.6935 C.ar    1  <0>1        0.1206
      8 C6          2.2637    2.4531   -0.6639 C.ar    1  <0>1       -0.0199
      9 C7          3.0613    3.0024   -1.6707 C.ar    1  <0>1       -0.0583
     10 C8          3.5111    2.2042   -2.7216 C.ar    1  <0>1       -0.0615
     11 C9          3.1598    0.8558   -2.7573 C.ar    1  <0>1       -0.0583
     12 C10         2.3633    0.3032   -1.7508 C.ar    1  <0>1       -0.0199
     13 H1          4.1289    2.6288   -3.5046 H       1  <0>1        0.0618
     14 H2          0.3647   -0.5129    2.5266 H       1  <0>1        0.0611
     15 O2         -1.3909   -0.2652    1.3989 O.3     1  <0>1       -0.3769
     16 C11        -2.2731   -0.3177    2.5118 C.3     1  <0>1        0.0334
     17 H3         -3.1868    0.2684    2.2750 H       1  <0>1        0.0541
     18 H4         -1.7995    0.1600    3.3972 H       1  <0>1        0.0541
     19 C12        -2.6383   -1.7773    2.7936 C.3     1  <0>1       -0.0660
     20 H5         -3.3078   -1.8166    3.6836 H       1  <0>1        0.0081
     21 H6         -3.2241   -2.1784    1.9350 H       1  <0>1        0.0081
     22 H7         -2.0865   -4.4596    2.2287 H       1  <0>1        0.0107
     23 H8         -0.7889   -4.6273    3.4463 H       1  <0>1        0.0107
     24 H9          3.3399    4.0677   -1.6454 H       1  <0>1        0.0619
     25 H10         3.5206    0.2319   -3.5909 H       1  <0>1        0.0619
     26 H11         2.1054   -0.7654   -1.8122 H       1  <0>1        0.0654
     27 H12         1.9127    3.0952    0.1624 H       1  <0>1        0.0654
     28 H13         0.1790   -1.0053   -0.5317 H       1  <0>1        0.0722
     29 H14         1.6398   -1.3640    0.4655 H       1  <0>1        0.0722
     30 H15         0.4751   -2.9719    2.0160 H       1  <0>1        0.0085
     31 H16        -0.9248   -2.8269    0.9157 H       1  <0>1        0.0085
     32 N2         -4.6247   -4.9168    5.2810 N.ar    1  <0>1       -0.3604
     33 C13        -2.7475   -4.2937    4.2580 C.ar    1  <0>1       -0.0389
     34 C14        -3.9980   -4.8450    4.0588 C.ar    1  <0>1        0.0041
     35 C15        -2.6331   -4.0642    5.6513 C.ar    1  <0>1        0.0010
     36 C16        -3.8059   -4.4358    6.2767 C.ar    1  <0>1        0.0467
     37 C17        -1.5755   -3.5696    6.4103 C.ar    1  <0>1       -0.0524
     38 C18        -4.0170   -4.3268    7.6024 C.ar    1  <0>1       -0.0378
     39 C19        -1.7745   -3.4566    7.7881 C.ar    1  <0>1       -0.0611
     40 C20        -3.0008   -3.8368    8.3443 C.ar    1  <0>1       -0.0598
     41 H17        -4.4807   -5.1883    3.1333 H       1  <0>1        0.0809
     42 H18        -5.5979   -5.2931    5.4059 H       1  <0>1        0.1653
     43 H19        -0.6069   -3.2916    5.9704 H       1  <0>1        0.0624
     44 H20        -0.9736   -3.0755    8.4445 H       1  <0>1        0.0618
     45 H21        -3.1753   -3.7556    9.4314 H       1  <0>1        0.0618
     46 H22        -4.9588   -4.6187    8.0527 H       1  <0>1        0.0638
     47 H23        -0.9461   -2.2639    3.8405 H       1  <0>1       -0.0811
@<TRIPOS>BOND
     1     1     2    1
     2     1     3    1
     3     1    19    1
     4     1    47    1
     5     2    31    1
     6     2    30    1
     7     2     4    1
     8     3    22    1
     9     3    23    1
    10     3    33    1
    11     4     5    1
    12     4    15    1
    13     4    14    1
    14     5    28    1
    15     5    29    1
    16     5     6    1
    17     6     7    1
    18     7    12   ar
    19     7     8   ar
    20     8     9   ar
    21     8    27    1
    22     9    10   ar
    23     9    24    1
    24    10    11   ar
    25    10    13    1
    26    11    25    1
    27    11    12   ar
    28    12    26    1
    29    15    16    1
    30    16    19    1
    31    16    17    1
    32    16    18    1
    33    19    21    1
    34    19    20    1
    35    32    34   ar
    36    32    42    1
    37    32    36   ar
    38    33    34   ar
    39    33    35   ar
    40    34    41    1
    41    35    36   ar
    42    35    37   ar
    43    36    38   ar
    44    37    43    1
    45    37    39   ar
    46    38    40   ar
    47    39    40   ar
    48    39    44    1
    49    40    45    1
    50    38    46    1
