@<TRIPOS>MOLECULE
cpd_19
 48 51 0 0 0
SMALL
GASTEIGER
Energy = 0

@<TRIPOS>ATOM
      1 C1         -1.2682    0.5253    0.0335 C.ar    1  <0>1        0.2176
      2 N1         -2.4533    0.8064   -0.5483 N.ar    1  <0>1       -0.2228
      3 C2         -2.6668    1.9852   -1.1673 C.ar    1  <0>1        0.0326
      4 C3         -1.6514    2.9428   -1.1989 C.ar    1  <0>1       -0.0253
      5 C4         -0.4217    2.6158   -0.6245 C.ar    1  <0>1        0.0326
      6 N2         -0.2433    1.3967   -0.0767 N.ar    1  <0>1       -0.2228
      7 N3         -1.1014   -0.6180    0.7438 N.pl3   1  <0>1       -0.3032
      8 C5          0.2482   -1.1369    0.9669 C.3     1  <0>1        0.0000
      9 C6          0.3044   -2.6662    1.2324 C.3     1  <0>1       -0.0738
     10 N4         -0.7448   -3.0647    2.2066 N.4     1  <0>1        0.3854
     11 C7         -2.0766   -2.7864    1.6042 C.3     1  <0>1       -0.0738
     12 C8         -2.2653   -1.2708    1.3435 C.3     1  <0>1        0.0000
     13 C9         -0.6149   -4.4719    2.6842 C.3     1  <0>1       -0.0470
     14 H1         -3.6256    2.1819   -1.6351 H       1  <0>1        0.0831
     15 H2         -1.8124    3.9130   -1.6564 H       1  <0>1        0.0648
     16 H3          0.3918    3.3333   -0.6136 H       1  <0>1        0.0831
     17 H4          0.9080   -0.9084    0.1127 H       1  <0>1        0.0446
     18 H5          0.6396   -0.6076    1.8508 H       1  <0>1        0.0446
     19 H6          0.1672   -3.2072    0.2804 H       1  <0>1        0.0074
     20 H7          1.3107   -2.9202    1.6105 H       1  <0>1        0.0074
     21 H8         -2.1869   -3.3317    0.6504 H       1  <0>1        0.0074
     22 H9         -2.9055   -3.1074    2.2596 H       1  <0>1        0.0074
     23 H10        -3.1785   -1.1389    0.7397 H       1  <0>1        0.0446
     24 H11        -2.4252   -0.7681    2.3117 H       1  <0>1        0.0446
     25 H12         0.4010   -4.7117    3.0365 H       1  <0>1        0.0122
     26 H13        -0.8174   -5.1527    1.8401 H       1  <0>1        0.0122
     27 C10        -3.0794   -4.2795    7.0824 C.ar    1  <0>1        0.0174
     28 C11        -3.8343   -5.2353    7.7736 C.ar    1  <0>1       -0.0511
     29 C12        -2.8105   -3.0549    7.7055 C.ar    1  <0>1       -0.0511
     30 C13        -4.2834   -4.9863    9.0731 C.ar    1  <0>1       -0.0611
     31 C14        -3.2056   -2.8257    9.0266 C.ar    1  <0>1       -0.0611
     32 C15        -3.9526   -3.7874    9.7094 C.ar    1  <0>1       -0.0617
     33 H14        -4.0780   -6.1802    7.2996 H       1  <0>1        0.0625
     34 H15        -2.3103   -2.2539    7.1739 H       1  <0>1        0.0625
     35 H16        -4.8873   -5.7255    9.5880 H       1  <0>1        0.0618
     36 H17        -2.9361   -1.8961    9.5208 H       1  <0>1        0.0618
     37 H18        -4.2791   -3.6028   10.7281 H       1  <0>1        0.0618
     38 C16        -1.6095   -4.7243    3.7999 C.ar    1  <0>1        0.0218
     39 N5         -1.5696   -4.2107    5.0182 N.ar    1  <0>1       -0.3325
     40 N6         -3.3029   -5.3760    4.9513 N.ar    1  <0>1       -0.2357
     41 C17        -2.6953   -5.5093    3.6584 C.ar    1  <0>1        0.0474
     42 C18        -2.6211   -4.6110    5.6757 C.ar    1  <0>1        0.1406
     43 C19        -0.4988   -3.3704    5.5554 C.3     1  <0>1        0.0134
     44 H19        -3.0383   -6.0870    2.8023 H       1  <0>1        0.0847
     45 H20         0.4617   -3.5691    5.0599 H       1  <0>1        0.0456
     46 H21        -0.3488   -3.5830    6.6255 H       1  <0>1        0.0456
     47 H22        -0.7443   -2.3049    5.4217 H       1  <0>1        0.0456
     48 H23        -0.6456   -2.4738    3.0172 H       1  <0>1       -0.0812
@<TRIPOS>BOND
     1     1     2   ar
     2     5     6   ar
     3     9    10    1
     4    38    39   ar
     5     1     7    1
     6     1     6   ar
     7     2     3   ar
     8     3    14    1
     9     3     4   ar
    10     4     5   ar
    11     4    15    1
    12     5    16    1
    13     7    12    1
    14     7     8    1
    15     8     9    1
    16     8    17    1
    17     8    18    1
    18     9    19    1
    19     9    20    1
    20    10    13    1
    21    10    11    1
    22    10    48    1
    23    11    21    1
    24    11    22    1
    25    11    12    1
    26    12    23    1
    27    12    24    1
    28    13    26    1
    29    13    25    1
    30    13    38    1
    31    27    42    1
    32    27    28   ar
    33    27    29   ar
    34    28    33    1
    35    28    30   ar
    36    29    34    1
    37    29    31   ar
    38    30    35    1
    39    30    32   ar
    40    31    32   ar
    41    31    36    1
    42    32    37    1
    43    38    41   ar
    44    39    42   ar
    45    39    43    1
    46    40    41   ar
    47    40    42   ar
    48    41    44    1
    49    43    45    1
    50    43    46    1
    51    43    47    1
