@<TRIPOS>MOLECULE
cpd_06
 43 46 0 0 0
SMALL
GASTEIGER
Energy = 0

@<TRIPOS>ATOM
      1 C1          0.1092    0.0578   -0.1272 C.2     1  <0>1        0.3229
      2 C2          3.1293    0.6647   -2.0628 C.ar    1  <0>1       -0.0090
      3 C3          3.9081    1.6027   -2.7350 C.ar    1  <0>1       -0.0575
      4 C4          3.6714    2.9604   -2.5376 C.ar    1  <0>1       -0.0597
      5 C5          2.6430    3.3766   -1.6898 C.ar    1  <0>1       -0.0363
      6 C6          1.8325    2.4461   -1.0193 C.ar    1  <0>1        0.0828
      7 C7          2.0935    1.0647   -1.2088 C.ar    1  <0>1        0.1974
      8 N1          0.7272    2.8920   -0.2842 N.pl3   1  <0>1       -0.3104
      9 N2          1.3918    0.0678   -0.5400 N.2     1  <0>1       -0.0396
     10 H1          4.7041    1.2765   -3.3945 H       1  <0>1        0.0619
     11 C8         -0.8187    1.0560   -0.7315 C.ar    1  <0>1        0.0880
     12 C9         -0.5147    2.4327   -0.7508 C.ar    1  <0>1        0.0465
     13 C10        -1.4245    3.2871   -1.3965 C.ar    1  <0>1       -0.0383
     14 C11        -2.5805    2.7879   -2.0128 C.ar    1  <0>1       -0.0416
     15 C12        -2.8673    1.4291   -1.9830 C.ar    1  <0>1        0.0419
     16 C13        -1.9867    0.5717   -1.3386 C.ar    1  <0>1       -0.0267
     17 C14         0.5703   -1.9856    1.0965 C.3     1  <0>1        0.0659
     18 N3         -0.3259   -0.8890    0.7441 N.pl3   1  <0>1       -0.2237
     19 C15        -0.2078   -3.1731    1.6624 C.3     1  <0>1       -0.0537
     20 C16        -1.3480   -0.4903    1.7103 C.3     1  <0>1        0.0659
     21 C17        -2.1064   -1.7050    2.2390 C.3     1  <0>1       -0.0537
     22 N4         -1.1666   -2.7587    2.7401 N.4     1  <0>1        0.3826
     23 C18        -1.9327   -3.9437    3.2320 C.3     1  <0>1       -0.1029
     24 H2         -0.6381   -2.3762    3.5085 H       1  <0>1       -0.0819
     25 H3          0.7274    3.9175   -0.2070 H       1  <0>1        0.1523
     26 H4          3.3334   -0.4087   -2.2063 H       1  <0>1        0.0661
     27 H5          4.2892    3.7068   -3.0641 H       1  <0>1        0.0618
     28 H6          2.4594    4.4591   -1.5812 H       1  <0>1        0.0637
     29 H7         -1.2124    4.3672   -1.4710 H       1  <0>1        0.0637
     30 H8         -3.2645    3.4807   -2.5332 H       1  <0>1        0.0633
     31 Cl1        -4.2920    0.8186   -2.7332 Cl      1  <0>1       -0.0835
     32 H9         -2.1984   -0.5103   -1.3420 H       1  <0>1        0.0641
     33 H10         1.1481   -2.3405    0.2114 H       1  <0>1        0.0707
     34 H11         1.3185   -1.6480    1.8511 H       1  <0>1        0.0707
     35 H12         0.5105   -3.9356    2.0444 H       1  <0>1        0.0095
     36 H13        -0.7682   -3.6581    0.8290 H       1  <0>1        0.0095
     37 H14        -0.8766    0.0456    2.5669 H       1  <0>1        0.0707
     38 H15        -2.0896    0.2176    1.2777 H       1  <0>1        0.0707
     39 H16        -2.7384   -2.1180    1.4183 H       1  <0>1        0.0095
     40 H17        -2.8055   -1.3817    3.0454 H       1  <0>1        0.0095
     41 H18        -2.6319   -3.6626    4.0514 H       1  <0>1        0.0023
     42 H19        -2.5365   -4.4072    2.4202 H       1  <0>1        0.0023
     43 H20        -1.2519   -4.7278    3.6334 H       1  <0>1        0.0023
@<TRIPOS>BOND
     1     1     9    2
     2     1    11    1
     3     1    18    1
     4     2     3   ar
     5     2     7   ar
     6     2    26    1
     7     3    10    1
     8     3     4   ar
     9     4     5   ar
    10     4    27    1
    11     5     6   ar
    12     5    28    1
    13     6     7   ar
    14     6     8    1
    15     7     9    1
    16     8    12    1
    17     8    25    1
    18    11    16   ar
    19    11    12   ar
    20    12    13   ar
    21    13    14   ar
    22    13    29    1
    23    14    15   ar
    24    14    30    1
    25    15    16   ar
    26    15    31    1
    27    16    32    1
    28    17    18    1
    29    17    19    1
    30    17    33    1
    31    17    34    1
    32    18    20    1
    33    19    22    1
    34    19    35    1
    35    19    36    1
    36    20    21    1
    37    20    37    1
    38    20    38    1
    39    21    22    1
    40    21    39    1
    41    21    40    1
    42    22    23    1
    43    22    24    1
    44    23    41    1
    45    23    42    1
    46    23    43    1
