@<TRIPOS>MOLECULE
cpd_10
 40 42 0 0 0
SMALL
GASTEIGER
Energy = 0

@<TRIPOS>ATOM
      1 C1          0.2530   -0.4984    1.4928 C.3     1  <0>1       -0.0488
      2 C2          1.1275   -0.0138    0.3606 C.2     1  <0>1       -0.0774
      3 C3         -0.4866    1.3197   -0.8173 C.ar    1  <0>1       -0.0025
      4 C4         -0.7399    2.6512   -1.1837 C.ar    1  <0>1        0.0205
      5 C5         -2.0582    3.1124   -1.2932 C.ar    1  <0>1       -0.0460
      6 C6         -3.1343    2.2324   -1.1716 C.ar    1  <0>1       -0.0423
      7 Cl1        -4.1806   -0.2566   -0.8640 Cl      1  <0>1       -0.0835
      8 S1          0.5045    3.8369   -1.6095 S.3     1  <0>1       -0.0882
      9 C7          3.0205    3.3613   -2.4200 C.ar    1  <0>1       -0.0474
     10 C8          1.9191    2.7876   -1.7756 C.ar    1  <0>1        0.0205
     11 C9          0.8229    0.8348   -0.6496 C.2     1  <0>1       -0.0126
     12 C10         1.9384    1.4355   -1.4109 C.ar    1  <0>1       -0.0039
     13 C11         4.1388    1.2307   -2.4427 C.ar    1  <0>1       -0.0611
     14 C12         4.1200    2.5820   -2.7746 C.ar    1  <0>1       -0.0607
     15 C13         3.0620    0.6665   -1.7590 C.ar    1  <0>1       -0.0530
     16 C14        -1.5802    0.4393   -0.7557 C.ar    1  <0>1       -0.0346
     17 C15        -2.8887    0.8843   -0.9335 C.ar    1  <0>1        0.0416
     18 C16         0.0108   -2.0220    1.4538 C.3     1  <0>1       -0.0878
     19 N1         -0.9299   -2.5464    2.5027 N.4     1  <0>1        0.3762
     20 C17        -0.9528   -4.0411    2.4608 C.3     1  <0>1       -0.1036
     21 C18        -2.3224   -2.0273    2.3223 C.3     1  <0>1       -0.1036
     22 H1         -0.5942   -2.2502    3.4058 H       1  <0>1       -0.0826
     23 H2          0.7527   -0.2350    2.4537 H       1  <0>1        0.0289
     24 H3         -0.7078    0.0547    1.5085 H       1  <0>1        0.0289
     25 H4          2.1864   -0.3086    0.4760 H       1  <0>1        0.0578
     26 H5         -2.2516    4.1688   -1.5502 H       1  <0>1        0.0629
     27 H6         -4.1669    2.5966   -1.3070 H       1  <0>1        0.0632
     28 H7          2.9974    4.4258   -2.7099 H       1  <0>1        0.0629
     29 H8          5.0080    0.6096   -2.7203 H       1  <0>1        0.0618
     30 H9          4.9705    3.0346   -3.3135 H       1  <0>1        0.0618
     31 H10         3.1042   -0.4074   -1.5158 H       1  <0>1        0.0624
     32 H11        -1.4123   -0.6363   -0.6085 H       1  <0>1        0.0638
     33 H12        -0.3632   -2.3062    0.4437 H       1  <0>1        0.0062
     34 H13         1.0016   -2.5240    1.5610 H       1  <0>1        0.0062
     35 H14        -1.6197   -4.4595    3.2478 H       1  <0>1        0.0023
     36 H15        -1.3164   -4.4168    1.4782 H       1  <0>1        0.0023
     37 H16         0.0613   -4.4685    2.6294 H       1  <0>1        0.0023
     38 H17        -3.0122   -2.4528    3.0853 H       1  <0>1        0.0023
     39 H18        -2.3745   -0.9219    2.4256 H       1  <0>1        0.0023
     40 H19        -2.7286   -2.2932    1.3210 H       1  <0>1        0.0023
@<TRIPOS>BOND
     1     1     2    1
     2     1    18    1
     3     1    23    1
     4     1    24    1
     5     2    11    2
     6     2    25    1
     7     3    16   ar
     8     3     4   ar
     9     3    11    1
    10     4     5   ar
    11     4     8    1
    12     5     6   ar
    13     5    26    1
    14     6    17   ar
    15     6    27    1
    16     7    17    1
    17     8    10    1
    18     9    10   ar
    19     9    14   ar
    20     9    28    1
    21    10    12   ar
    22    11    12    1
    23    12    15   ar
    24    13    14   ar
    25    13    15   ar
    26    13    29    1
    27    14    30    1
    28    15    31    1
    29    16    17   ar
    30    16    32    1
    31    18    19    1
    32    18    33    1
    33    18    34    1
    34    19    20    1
    35    19    21    1
    36    19    22    1
    37    20    35    1
    38    20    36    1
    39    20    37    1
    40    21    38    1
    41    21    39    1
    42    21    40    1
