@<TRIPOS>MOLECULE
1_2A
 29 30 0 0 0
SMALL
GASTEIGER
Energy = 0

@<TRIPOS>ATOM
      1 C          -1.3400    4.1594    0.7230 C.ar    1  LIG1       -0.0611
      2 C          -0.0233    4.3751    1.1023 C.ar    1  LIG1       -0.0597
      3 C           0.8809    3.3110    1.0931 C.ar    1  LIG1       -0.0357
      4 C           0.5052    2.0292    0.7137 C.ar    1  LIG1        0.0715
      5 C          -0.8335    1.7980    0.3272 C.ar    1  LIG1        0.0033
      6 C          -1.7436    2.8814    0.3382 C.ar    1  LIG1       -0.0523
      7 N           1.4378    1.0630    0.7321 N.ar    1  LIG1       -0.2513
      8 C           1.0917   -0.1925    0.3659 C.ar    1  LIG1        0.0448
      9 C          -0.2022   -0.5149   -0.0273 C.ar    1  LIG1       -0.0366
     10 C          -1.1843    0.4812   -0.0514 C.ar    1  LIG1       -0.0396
     11 C           2.1965   -1.2294    0.4102 C.3     1  LIG1       -0.0043
     12 C           2.4752   -1.8215   -0.9724 C.3     1  LIG1       -0.0572
     13 C           1.8985   -2.3279    1.4319 C.3     1  LIG1       -0.0572
     14 H          -2.0524    4.9800    0.7257 H       1  LIG1        0.0618
     15 H           0.3069    5.3650    1.4053 H       1  LIG1        0.0618
     16 H           1.9123    3.4854    1.3911 H       1  LIG1        0.0639
     17 H          -2.7805    2.7379    0.0454 H       1  LIG1        0.0624
     18 C          -2.5795    0.1178   -0.4803 C.3     1  LIG1       -0.0390
     19 H          -0.4469   -1.5333   -0.3137 H       1  LIG1        0.0638
     20 H           3.1155   -0.7240    0.7367 H       1  LIG1        0.0358
     21 H           3.3361   -2.4979   -0.9350 H       1  LIG1        0.0236
     22 H           2.7001   -1.0320   -1.6983 H       1  LIG1        0.0236
     23 H           1.6211   -2.3918   -1.3536 H       1  LIG1        0.0236
     24 H           1.0156   -2.9148    1.1561 H       1  LIG1        0.0236
     25 H           1.7178   -1.9005    2.4246 H       1  LIG1        0.0236
     26 H           2.7449   -3.0183    1.5129 H       1  LIG1        0.0236
     27 H          -2.8619    0.6825   -1.3746 H       1  LIG1        0.0278
     28 H          -3.2917    0.3235    0.3252 H       1  LIG1        0.0278
     29 H          -2.6615   -0.9467   -0.7250 H       1  LIG1        0.0278
@<TRIPOS>BOND
     1    22    12    1
     2    27    18    1
     3    23    12    1
     4    12    21    1
     5    12    11    1
     6    29    18    1
     7    18    10    1
     8    18    28    1
     9    19     9    1
    10    10     9   ar
    11    10     5   ar
    12     9     8   ar
    13    17     6    1
    14     5     6   ar
    15     5     4   ar
    16     6     1   ar
    17     8    11    1
    18     8     7   ar
    19    11    20    1
    20    11    13    1
    21     4     7   ar
    22     4     3   ar
    23     1    14    1
    24     1     2   ar
    25     3     2   ar
    26     3    16    1
    27     2    15    1
    28    24    13    1
    29    13    26    1
    30    13    25    1
