@<TRIPOS>MOLECULE
1_2C
 30 32 0 0 0
SMALL
GASTEIGER

@<TRIPOS>ATOM
      1 C          -1.3400    4.1603    0.7231 C.ar    1  LIG11      -0.0611
      2 C          -0.0228    4.3748    1.1015 C.ar    1  LIG11      -0.0597
      3 C           0.8802    3.3096    1.0925 C.ar    1  LIG11      -0.0357
      4 C           0.5029    2.0282    0.7136 C.ar    1  LIG11       0.0715
      5 C          -0.8351    1.7990    0.3269 C.ar    1  LIG11       0.0033
      6 C          -1.7449    2.8827    0.3384 C.ar    1  LIG11      -0.0523
      7 N           1.4347    1.0608    0.7333 N.ar    1  LIG11      -0.2513
      8 C           1.0989   -0.1975    0.3633 C.ar    1  LIG11       0.0453
      9 C          -0.2002   -0.5102   -0.0248 C.ar    1  LIG11      -0.0366
     10 C          -1.1850    0.4832   -0.0509 C.ar    1  LIG11      -0.0396
     11 C           2.2776   -1.2288    0.4431 C.3     1  LIG11       0.0014
     12 C           3.7125   -0.7664    0.0488 C.3     1  LIG11      -0.0448
     13 C           2.4278   -2.2879   -0.6894 C.3     1  LIG11      -0.0448
     14 C           3.9517   -2.1918   -0.4845 C.3     1  LIG11      -0.0519
     15 H          -2.0516    4.9817    0.7263 H       1  LIG11       0.0618
     16 H           0.3086    5.3644    1.4040 H       1  LIG11       0.0618
     17 H           1.9119    3.4831    1.3901 H       1  LIG11       0.0639
     18 C          -2.5794    0.1160   -0.4778 C.3     1  LIG11      -0.0390
     19 H          -2.7822    2.7398    0.0465 H       1  LIG11       0.0624
     20 H          -0.4370   -1.5326   -0.3046 H       1  LIG11       0.0638
     21 H           2.2833   -1.7130    1.4329 H       1  LIG11       0.0364
     22 H           4.3566   -0.4597    0.8772 H       1  LIG11       0.0272
     23 H           3.7451    0.0039   -0.7311 H       1  LIG11       0.0272
     24 H           2.0966   -1.9482   -1.6781 H       1  LIG11       0.0272
     25 H           1.9866   -3.2672   -0.4850 H       1  LIG11       0.0272
     26 H           4.3413   -2.8863    0.2686 H       1  LIG11       0.0266
     27 H           4.5600   -2.2666   -1.3890 H       1  LIG11       0.0266
     28 H          -2.6560   -0.9465   -0.7328 H       1  LIG11       0.0278
     29 H          -2.8688    0.6873   -1.3657 H       1  LIG11       0.0278
     30 H          -3.2893    0.3103    0.3326 H       1  LIG11       0.0278
@<TRIPOS>BOND
     1    24    13    1
     2    27    14    1
     3    29    18    1
     4    28    18    1
     5    23    12    1
     6    13    25    1
     7    13    14    1
     8    13    11    1
     9    14    12    1
    10    14    26    1
    11    18    10    1
    12    18    30    1
    13    20     9    1
    14    10     9   ar
    15    10     5   ar
    16     9     8   ar
    17    19     6    1
    18    12    11    1
    19    12    22    1
    20     5     6   ar
    21     5     4   ar
    22     6     1   ar
    23     8    11    1
    24     8     7   ar
    25    11    21    1
    26     4     7   ar
    27     4     3   ar
    28     1    15    1
    29     1     2   ar
    30     3     2   ar
    31     3    17    1
    32     2    16    1
