@<TRIPOS>MOLECULE
1_2D
 33 35 0 0 0
SMALL
GASTEIGER

@<TRIPOS>ATOM
      1 C          -1.3401    4.1590    0.7249 C.ar    1  LIG11      -0.0611
      2 C          -0.0227    4.3751    1.1017 C.ar    1  LIG11      -0.0597
      3 C           0.8816    3.3112    1.0912 C.ar    1  LIG11      -0.0357
      4 C           0.5051    2.0295    0.7130 C.ar    1  LIG11       0.0715
      5 C          -0.8337    1.7979    0.3271 C.ar    1  LIG11       0.0033
      6 C          -1.7441    2.8810    0.3401 C.ar    1  LIG11      -0.0523
      7 N           1.4378    1.0636    0.7311 N.ar    1  LIG11      -0.2513
      8 C           1.0894   -0.1926    0.3711 C.ar    1  LIG11       0.0453
      9 C          -0.2011   -0.5148   -0.0293 C.ar    1  LIG11      -0.0366
     10 C          -1.1835    0.4811   -0.0540 C.ar    1  LIG11      -0.0396
     11 C           2.1652   -1.2491    0.3855 C.3     1  LIG11       0.0014
     12 C           2.9941   -1.2866    1.6704 C.3     1  LIG11      -0.0448
     13 C           3.2252   -1.0489   -0.7018 C.3     1  LIG11      -0.0448
     14 C           4.1957   -2.1292    1.2701 C.3     1  LIG11      -0.0524
     15 C           4.4851   -1.7418   -0.1782 C.3     1  LIG11      -0.0524
     16 H          -2.0527    4.9795    0.7292 H       1  LIG11       0.0618
     17 H           0.3078    5.3651    1.4040 H       1  LIG11       0.0618
     18 C          -2.5774    0.1181   -0.4872 C.3     1  LIG11      -0.0390
     19 H           1.9135    3.4856    1.3873 H       1  LIG11       0.0639
     20 H          -2.7815    2.7376    0.0488 H       1  LIG11       0.0624
     21 H          -0.4416   -1.5328   -0.3213 H       1  LIG11       0.0638
     22 H           1.7083   -2.2396    0.2494 H       1  LIG11       0.0364
     23 H           2.4432   -1.7238    2.5092 H       1  LIG11       0.0272
     24 H           3.3274   -0.2861    1.9723 H       1  LIG11       0.0272
     25 H           3.4393    0.0140   -0.8694 H       1  LIG11       0.0272
     26 H           2.9020   -1.4653   -1.6620 H       1  LIG11       0.0272
     27 H           3.9390   -3.1941    1.3231 H       1  LIG11       0.0265
     28 H           5.0568   -1.9614    1.9238 H       1  LIG11       0.0265
     29 H           4.7331   -2.6264   -0.7742 H       1  LIG11       0.0265
     30 H           5.3403   -1.0592   -0.2348 H       1  LIG11       0.0265
     31 H          -2.8605    0.6896   -1.3769 H       1  LIG11       0.0278
     32 H          -3.2905    0.3152    0.3197 H       1  LIG11       0.0278
     33 H          -2.6566   -0.9444   -0.7414 H       1  LIG11       0.0278
@<TRIPOS>BOND
     1    26    13    1
     2    31    18    1
     3    25    13    1
     4    29    15    1
     5    33    18    1
     6    13    15    1
     7    13    11    1
     8    18    10    1
     9    18    32    1
    10    21     9    1
    11    30    15    1
    12    15    14    1
    13    10     9   ar
    14    10     5   ar
    15     9     8   ar
    16    20     6    1
    17    22    11    1
    18     5     6   ar
    19     5     4   ar
    20     6     1   ar
    21     8    11    1
    22     8     7   ar
    23    11    12    1
    24     4     7   ar
    25     4     3   ar
    26     1    16    1
    27     1     2   ar
    28     3     2   ar
    29     3    19    1
    30     2    17    1
    31    14    27    1
    32    14    12    1
    33    14    28    1
    34    12    24    1
    35    12    23    1
