@<TRIPOS>MOLECULE
1_2E
 36 38 0 0 0
SMALL
GASTEIGER

@<TRIPOS>ATOM
      1 C          -1.3399    4.1591    0.7240 C.ar    1  LIG11      -0.0611
      2 C          -0.0227    4.3751    1.1017 C.ar    1  LIG11      -0.0597
      3 C           0.8815    3.3112    1.0921 C.ar    1  LIG11      -0.0357
      4 C           0.5052    2.0295    0.7136 C.ar    1  LIG11       0.0715
      5 C          -0.8336    1.7977    0.3270 C.ar    1  LIG11       0.0033
      6 C          -1.7438    2.8810    0.3394 C.ar    1  LIG11      -0.0523
      7 N           1.4378    1.0638    0.7329 N.ar    1  LIG11      -0.2513
      8 C           1.0898   -0.1913    0.3672 C.ar    1  LIG11       0.0453
      9 C          -0.2019   -0.5157   -0.0281 C.ar    1  LIG11      -0.0366
     10 C          -1.1838    0.4805   -0.0529 C.ar    1  LIG11      -0.0396
     11 C           2.1701   -1.2551    0.4026 C.3     1  LIG11       0.0014
     12 C           2.7031   -1.4530    1.8309 C.3     1  LIG11      -0.0448
     13 C           3.3131   -0.9144   -0.5674 C.3     1  LIG11      -0.0448
     14 C           3.8114   -2.5032    1.8732 C.3     1  LIG11      -0.0525
     15 C           4.9400   -2.1701    0.9017 C.3     1  LIG11      -0.0530
     16 C           4.4198   -1.9661   -0.5183 C.3     1  LIG11      -0.0525
     17 H          -2.0524    4.9797    0.7277 H       1  LIG11       0.0618
     18 C          -2.5787    0.1170   -0.4827 C.3     1  LIG11      -0.0390
     19 H           0.3077    5.3651    1.4040 H       1  LIG11       0.0618
     20 H           1.9132    3.4855    1.3890 H       1  LIG11       0.0639
     21 H          -2.7811    2.7376    0.0478 H       1  LIG11       0.0624
     22 H          -0.4438   -1.5348   -0.3146 H       1  LIG11       0.0638
     23 H           1.7327   -2.2093    0.0769 H       1  LIG11       0.0364
     24 H           1.8876   -1.7581    2.4983 H       1  LIG11       0.0272
     25 H           3.0939   -0.5071    2.2287 H       1  LIG11       0.0272
     26 H           3.7432    0.0660   -0.3240 H       1  LIG11       0.0272
     27 H           2.9278   -0.8397   -1.5919 H       1  LIG11       0.0272
     28 H           3.3925   -3.4858    1.6236 H       1  LIG11       0.0265
     29 H           4.2110   -2.5759    2.8910 H       1  LIG11       0.0265
     30 H           5.6829   -2.9755    0.9098 H       1  LIG11       0.0265
     31 H           5.4520   -1.2595    1.2364 H       1  LIG11       0.0265
     32 H           4.0364   -2.9175   -0.9071 H       1  LIG11       0.0265
     33 H           5.2448   -1.6632   -1.1729 H       1  LIG11       0.0265
     34 H          -3.2897    0.3130    0.3264 H       1  LIG11       0.0278
     35 H          -2.6579   -0.9452   -0.7379 H       1  LIG11       0.0278
     36 H          -2.8647    0.6892   -1.3711 H       1  LIG11       0.0278
@<TRIPOS>BOND
     1    27    13    1
     2    36    18    1
     3    33    16    1
     4    32    16    1
     5    35    18    1
     6    13    16    1
     7    13    26    1
     8    13    11    1
     9    16    15    1
    10    18    10    1
    11    18    34    1
    12    22     9    1
    13    10     9   ar
    14    10     5   ar
    15     9     8   ar
    16    21     6    1
    17    23    11    1
    18     5     6   ar
    19     5     4   ar
    20     6     1   ar
    21     8    11    1
    22     8     7   ar
    23    11    12    1
    24     4     7   ar
    25     4     3   ar
    26     1    17    1
    27     1     2   ar
    28    15    30    1
    29    15    31    1
    30    15    14    1
    31     3     2   ar
    32     3    20    1
    33     2    19    1
    34    28    14    1
    35    12    14    1
    36    12    25    1
    37    12    24    1
    38    14    29    1
