@<TRIPOS>MOLECULE
1_2G
 44 48 0 0 0
SMALL
GASTEIGER

@<TRIPOS>ATOM
      1 C          -1.3403    4.1616    0.7247 C.ar    1  LIG11      -0.0611
      2 C          -0.0228    4.3760    1.1021 C.ar    1  LIG11      -0.0597
      3 C           0.8798    3.3108    1.0915 C.ar    1  LIG11      -0.0357
      4 C           0.5015    2.0297    0.7125 C.ar    1  LIG11       0.0715
      5 C          -0.8349    1.8004    0.3270 C.ar    1  LIG11       0.0033
      6 C          -1.7451    2.8841    0.3397 C.ar    1  LIG11      -0.0523
      7 N           1.4314    1.0613    0.7305 N.ar    1  LIG11      -0.2510
      8 C           1.0986   -0.2024    0.3673 C.ar    1  LIG11       0.0484
      9 C          -0.1980   -0.5145   -0.0266 C.ar    1  LIG11      -0.0363
     10 C          -1.1816    0.4840   -0.0518 C.ar    1  LIG11      -0.0396
     11 C           2.2306   -1.2306    0.4229 C.3     1  LIG11       0.0137
     12 C           3.3828   -0.7789   -0.5196 C.3     1  LIG11      -0.0391
     13 C           4.5776   -1.7447   -0.4337 C.3     1  LIG11      -0.0397
     14 C           5.0941   -1.7837    1.0139 C.3     1  LIG11      -0.0473
     15 C           3.9825   -2.2707    1.9578 C.3     1  LIG11      -0.0397
     16 C           2.7873   -1.3053    1.8736 C.3     1  LIG11      -0.0391
     17 C           4.1254   -3.1521   -0.8494 C.3     1  LIG11      -0.0473
     18 C          -2.5769    0.1199   -0.4817 C.3     1  LIG11      -0.0390
     19 C           3.0104   -3.6407    0.0869 C.3     1  LIG11      -0.0397
     20 C           3.5333   -3.6756    1.5305 C.3     1  LIG11      -0.0473
     21 C           1.8185   -2.6716    0.0034 C.3     1  LIG11      -0.0391
     22 H          -2.0522    4.9828    0.7290 H       1  LIG11       0.0618
     23 H           0.3089    5.3654    1.4049 H       1  LIG11       0.0618
     24 H           1.9119    3.4833    1.3881 H       1  LIG11       0.0639
     25 H          -2.7824    2.7409    0.0483 H       1  LIG11       0.0624
     26 H          -0.4662   -1.5241   -0.3174 H       1  LIG11       0.0638
     27 H           3.7256    0.2316   -0.2605 H       1  LIG11       0.0277
     28 H           3.0231   -0.7250   -1.5560 H       1  LIG11       0.0277
     29 H           5.3764   -1.4021   -1.1011 H       1  LIG11       0.0301
     30 H           5.4341   -0.7861    1.3179 H       1  LIG11       0.0271
     31 H           5.9624   -2.4504    1.0833 H       1  LIG11       0.0271
     32 H           4.3592   -2.3011    2.9863 H       1  LIG11       0.0301
     33 H           3.1087   -0.3140    2.2200 H       1  LIG11       0.0277
     34 H           1.9979   -1.6311    2.5643 H       1  LIG11       0.0277
     35 H           4.9752   -3.8449   -0.8139 H       1  LIG11       0.0271
     36 H           3.7674   -3.1405   -1.8861 H       1  LIG11       0.0271
     37 H          -2.8638    0.6938   -1.3688 H       1  LIG11       0.0278
     38 H          -3.2874    0.3139    0.3282 H       1  LIG11       0.0278
     39 H          -2.6562   -0.9417   -0.7393 H       1  LIG11       0.0278
     40 H           2.6906   -4.6448   -0.2136 H       1  LIG11       0.0301
     41 H           4.3725   -4.3777    1.6084 H       1  LIG11       0.0271
     42 H           2.7494   -4.0407    2.2054 H       1  LIG11       0.0271
     43 H           1.4295   -2.6749   -1.0235 H       1  LIG11       0.0277
     44 H           1.0126   -3.0430    0.6504 H       1  LIG11       0.0277
@<TRIPOS>BOND
     1    36    17    1
     2    28    12    1
     3    37    18    1
     4    29    13    1
     5    43    21    1
     6    17    35    1
     7    17    13    1
     8    17    19    1
     9    39    18    1
    10    12    13    1
    11    12    27    1
    12    12    11    1
    13    18    10    1
    14    18    38    1
    15    13    14    1
    16    26     9    1
    17    40    19    1
    18    10     9   ar
    19    10     5   ar
    20     9     8   ar
    21    21    19    1
    22    21    11    1
    23    21    44    1
    24    25     6    1
    25    19    20    1
    26     5     6   ar
    27     5     4   ar
    28     6     1   ar
    29     8    11    1
    30     8     7   ar
    31    11    16    1
    32     4     7   ar
    33     4     3   ar
    34     1    22    1
    35     1     2   ar
    36    14    31    1
    37    14    30    1
    38    14    15    1
    39     3     2   ar
    40     3    24    1
    41     2    23    1
    42    20    41    1
    43    20    15    1
    44    20    42    1
    45    16    15    1
    46    16    33    1
    47    16    34    1
    48    15    32    1
