@<TRIPOS>MOLECULE
1_2H
 29 30 0 0 0
SMALL
GASTEIGER
Energy = 0

@<TRIPOS>ATOM
      1 C          -1.3397    4.1587    0.7229 C.ar    1  LIG1       -0.0611
      2 C          -0.0229    4.3750    1.1017 C.ar    1  LIG1       -0.0597
      3 C           0.8816    3.3112    1.0932 C.ar    1  LIG1       -0.0357
      4 C           0.5062    2.0293    0.7144 C.ar    1  LIG1        0.0715
      5 C          -0.8331    1.7972    0.3269 C.ar    1  LIG1        0.0033
      6 C          -1.7432    2.8805    0.3385 C.ar    1  LIG1       -0.0523
      7 N           1.4393    1.0636    0.7347 N.ar    1  LIG1       -0.2516
      8 C           1.0880   -0.1877    0.3636 C.ar    1  LIG1        0.0422
      9 C          -0.2031   -0.5163   -0.0270 C.ar    1  LIG1       -0.0369
     10 C          -1.1845    0.4795   -0.0519 C.ar    1  LIG1       -0.0396
     11 C           2.1634   -1.2421    0.4214 C.3     1  LIG1       -0.0106
     12 C           2.1727   -1.9572    1.7724 C.3     1  LIG1       -0.0505
     13 C           3.2679   -3.0098    1.8358 C.3     1  LIG1       -0.0649
     14 H          -2.0523    4.9792    0.7257 H       1  LIG1        0.0618
     15 H           0.3071    5.3651    1.4040 H       1  LIG1        0.0618
     16 H           1.9129    3.4861    1.3910 H       1  LIG1        0.0639
     17 H          -2.7804    2.7369    0.0464 H       1  LIG1        0.0624
     18 C          -2.5800    0.1156   -0.4788 C.3     1  LIG1       -0.0390
     19 H          -0.4409   -1.5381   -0.3074 H       1  LIG1        0.0638
     20 H           2.0187   -1.9614   -0.3941 H       1  LIG1        0.0328
     21 H           3.1362   -0.7662    0.2454 H       1  LIG1        0.0328
     22 H           1.2031   -2.4368    1.9535 H       1  LIG1        0.0266
     23 H           2.3232   -1.2319    2.5814 H       1  LIG1        0.0266
     24 H           3.2573   -3.5097    2.8094 H       1  LIG1        0.0230
     25 H           4.2551   -2.5577    1.6968 H       1  LIG1        0.0230
     26 H           3.1257   -3.7707    1.0617 H       1  LIG1        0.0230
     27 H          -2.8678    0.6872   -1.3670 H       1  LIG1        0.0278
     28 H          -3.2896    0.3119    0.3314 H       1  LIG1        0.0278
     29 H          -2.6593   -0.9468   -0.7333 H       1  LIG1        0.0278
@<TRIPOS>BOND
     1    27    18    1
     2    29    18    1
     3    18    10    1
     4    18    28    1
     5    20    11    1
     6    19     9    1
     7    10     9   ar
     8    10     5   ar
     9     9     8   ar
    10    17     6    1
    11    21    11    1
    12     5     6   ar
    13     5     4   ar
    14     6     1   ar
    15     8    11    1
    16     8     7   ar
    17    11    12    1
    18     4     7   ar
    19     4     3   ar
    20     1    14    1
    21     1     2   ar
    22    26    13    1
    23     3     2   ar
    24     3    16    1
    25     2    15    1
    26    25    13    1
    27    12    13    1
    28    12    22    1
    29    12    23    1
    30    13    24    1
