@<TRIPOS>MOLECULE
1_3A
 38 39 0 0 0
SMALL
GASTEIGER

@<TRIPOS>ATOM
      1 C          -1.3545    4.1518    0.7193 C.ar    1  LIG11      -0.0608
      2 C          -0.0413    4.3836    1.0994 C.ar    1  LIG11      -0.0563
      3 C           0.9024    3.3381    1.1030 C.ar    1  LIG11      -0.0189
      4 C           0.5223    2.0389    0.7196 C.ar    1  LIG11       0.0749
      5 C          -0.8195    1.8011    0.3308 C.ar    1  LIG11       0.0036
      6 C          -1.7398    2.8720    0.3383 C.ar    1  LIG11      -0.0523
      7 N           1.4333    1.0458    0.7278 N.ar    1  LIG11      -0.2510
      8 C           1.0787   -0.2064    0.3620 C.ar    1  LIG11       0.0448
      9 C          -0.2118   -0.5200   -0.0315 C.ar    1  LIG11      -0.0366
     10 C          -1.1812    0.4859   -0.0517 C.ar    1  LIG11      -0.0396
     11 C           2.1544   -1.2736    0.3954 C.3     1  LIG11      -0.0043
     12 C           2.6983   -1.4512    1.8139 C.3     1  LIG11      -0.0572
     13 C           3.2824   -0.9362   -0.5809 C.3     1  LIG11      -0.0572
     14 C           2.4126    4.0985    2.9841 C.3     1  LIG11      -0.0586
     15 C           3.0099    4.6419    0.5933 C.3     1  LIG11      -0.0586
     16 C           2.3415    3.6285    1.5278 C.3     1  LIG11      -0.0195
     17 H          -2.0762    4.9642    0.7194 H       1  LIG11       0.0618
     18 C          -2.5794    0.1306   -0.4812 C.3     1  LIG11      -0.0390
     19 H           0.2484    5.3891    1.3958 H       1  LIG11       0.0621
     20 H          -2.7753    2.7193    0.0452 H       1  LIG11       0.0624
     21 H          -0.4629   -1.5361   -0.3197 H       1  LIG11       0.0638
     22 H           1.7199   -2.2321    0.0837 H       1  LIG11       0.0358
     23 H           1.8929   -1.7022    2.5132 H       1  LIG11       0.0236
     24 H           3.1847   -0.5400    2.1802 H       1  LIG11       0.0236
     25 H           3.4356   -2.2604    1.8463 H       1  LIG11       0.0236
     26 H           2.8963   -0.8195   -1.5997 H       1  LIG11       0.0236
     27 H           4.0324   -1.7342   -0.5952 H       1  LIG11       0.0236
     28 H           3.7902   -0.0039   -0.3090 H       1  LIG11       0.0236
     29 H           1.9090    5.0597    3.1323 H       1  LIG11       0.0235
     30 H           3.4551    4.2196    3.2979 H       1  LIG11       0.0235
     31 H           1.9439    3.3683    3.6533 H       1  LIG11       0.0235
     32 H           2.9665    4.3013   -0.4472 H       1  LIG11       0.0235
     33 H           4.0646    4.7718    0.8595 H       1  LIG11       0.0235
     34 H           2.5330    5.6265    0.6435 H       1  LIG11       0.0235
     35 H           2.9411    2.7127    1.4689 H       1  LIG11       0.0344
     36 H          -3.2884    0.3266    0.3296 H       1  LIG11       0.0278
     37 H          -2.6646   -0.9304   -0.7399 H       1  LIG11       0.0278
     38 H          -2.8637    0.7061   -1.3680 H       1  LIG11       0.0278
@<TRIPOS>BOND
     1    26    13    1
     2    38    18    1
     3    37    18    1
     4    27    13    1
     5    13    28    1
     6    13    11    1
     7    18    10    1
     8    18    36    1
     9    32    15    1
    10    21     9    1
    11    10     9   ar
    12    10     5   ar
    13     9     8   ar
    14    20     6    1
    15    22    11    1
    16     5     6   ar
    17     5     4   ar
    18     6     1   ar
    19     8    11    1
    20     8     7   ar
    21    11    12    1
    22    15    34    1
    23    15    33    1
    24    15    16    1
    25     1    17    1
    26     1     2   ar
    27     4     7   ar
    28     4     3   ar
    29     2     3   ar
    30     2    19    1
    31     3    16    1
    32    35    16    1
    33    16    14    1
    34    12    25    1
    35    12    24    1
    36    12    23    1
    37    14    29    1
    38    14    30    1
    39    14    31    1
