@<TRIPOS>MOLECULE
1_3E
 52 55 0 0 0
SMALL
GASTEIGER

@<TRIPOS>ATOM
      1 C          -1.3541    4.1518    0.7188 C.ar    1  LIG11      -0.0608
      2 C          -0.0409    4.3834    1.0994 C.ar    1  LIG11      -0.0563
      3 C           0.9027    3.3380    1.1034 C.ar    1  LIG11      -0.0183
      4 C           0.5217    2.0391    0.7199 C.ar    1  LIG11       0.0750
      5 C          -0.8198    1.8011    0.3310 C.ar    1  LIG11       0.0036
      6 C          -1.7398    2.8721    0.3380 C.ar    1  LIG11      -0.0523
      7 N           1.4324    1.0461    0.7278 N.ar    1  LIG11      -0.2510
      8 C           1.0790   -0.2060    0.3612 C.ar    1  LIG11       0.0453
      9 C          -0.2114   -0.5201   -0.0315 C.ar    1  LIG11      -0.0366
     10 C          -1.1811    0.4856   -0.0512 C.ar    1  LIG11      -0.0396
     11 C           2.1568   -1.2714    0.3940 C.3     1  LIG11       0.0014
     12 C           2.6944   -1.4672    1.8210 C.3     1  LIG11      -0.0448
     13 C           3.2969   -0.9312   -0.5798 C.3     1  LIG11      -0.0448
     14 C           3.8039   -2.5162    1.8611 C.3     1  LIG11      -0.0525
     15 C           4.9294   -2.1824    0.8863 C.3     1  LIG11      -0.0530
     16 C           4.4048   -1.9815   -0.5324 C.3     1  LIG11      -0.0525
     17 H          -2.0756    4.9643    0.7185 H       1  LIG11       0.0618
     18 C          -2.5795    0.1300   -0.4801 C.3     1  LIG11      -0.0390
     19 H           0.2483    5.3890    1.3958 H       1  LIG11       0.0621
     20 C           2.3425    3.6265    1.5290 C.3     1  LIG11      -0.0138
     21 H          -2.7752    2.7195    0.0447 H       1  LIG11       0.0624
     22 H          -0.4623   -1.5362   -0.3198 H       1  LIG11       0.0638
     23 H           1.7172   -2.2253    0.0706 H       1  LIG11       0.0364
     24 H           1.8812   -1.7724    2.4911 H       1  LIG11       0.0272
     25 H           3.0856   -0.5205    2.2167 H       1  LIG11       0.0272
     26 H           3.7268    0.0502   -0.3391 H       1  LIG11       0.0272
     27 H           2.9086   -0.8583   -1.6033 H       1  LIG11       0.0272
     28 H           3.3855   -3.4995    1.6134 H       1  LIG11       0.0265
     29 H           4.2064   -2.5876    2.8779 H       1  LIG11       0.0265
     30 H           5.6738   -2.9866    0.8935 H       1  LIG11       0.0265
     31 H           5.4407   -1.2704    1.2184 H       1  LIG11       0.0265
     32 H           4.0214   -2.9339   -0.9185 H       1  LIG11       0.0265
     33 H           5.2275   -1.6786   -1.1899 H       1  LIG11       0.0265
     34 H          -2.8633    0.7041   -1.3680 H       1  LIG11       0.0278
     35 H          -3.2886    0.3279    0.3301 H       1  LIG11       0.0278
     36 H          -2.6651   -0.9315   -0.7368 H       1  LIG11       0.0278
     37 C           3.0256    4.6394    0.5915 C.3     1  LIG11      -0.0461
     38 C           4.4662    4.9125    1.0214 C.3     1  LIG11      -0.0525
     39 C           4.5435    5.3637    2.4771 C.3     1  LIG11      -0.0530
     40 C           3.8664    4.3671    3.4136 C.3     1  LIG11      -0.0525
     41 C           2.4230    4.0908    2.9950 C.3     1  LIG11      -0.0461
     42 H           2.9321    2.7030    1.4655 H       1  LIG11       0.0349
     43 H           2.4769    5.5893    0.5781 H       1  LIG11       0.0271
     44 H           3.0200    4.2604   -0.4380 H       1  LIG11       0.0271
     45 H           4.9039    5.6807    0.3739 H       1  LIG11       0.0265
     46 H           5.0656    4.0035    0.8881 H       1  LIG11       0.0265
     47 H           4.0638    6.3448    2.5806 H       1  LIG11       0.0265
     48 H           5.5924    5.4887    2.7686 H       1  LIG11       0.0265
     49 H           3.8845    4.7540    4.4387 H       1  LIG11       0.0265
     50 H           4.4317    3.4269    3.4173 H       1  LIG11       0.0265
     51 H           1.8320    5.0024    3.1476 H       1  LIG11       0.0271
     52 H           1.9943    3.3261    3.6547 H       1  LIG11       0.0271
@<TRIPOS>BOND
     1    27    13    1
     2    34    18    1
     3    33    16    1
     4    32    16    1
     5    36    18    1
     6    13    16    1
     7    13    26    1
     8    13    11    1
     9    16    15    1
    10    18    10    1
    11    18    35    1
    12    44    37    1
    13    22     9    1
    14    10     9   ar
    15    10     5   ar
    16     9     8   ar
    17    21     6    1
    18    23    11    1
    19     5     6   ar
    20     5     4   ar
    21     6     1   ar
    22     8    11    1
    23     8     7   ar
    24    45    38    1
    25    11    12    1
    26    43    37    1
    27    37    38    1
    28    37    20    1
    29    17     1    1
    30     1     2   ar
    31     4     7   ar
    32     4     3   ar
    33    15    30    1
    34    15    31    1
    35    15    14    1
    36    46    38    1
    37    38    39    1
    38     2     3   ar
    39     2    19    1
    40     3    20    1
    41    42    20    1
    42    20    41    1
    43    28    14    1
    44    12    14    1
    45    12    25    1
    46    12    24    1
    47    14    29    1
    48    39    47    1
    49    39    48    1
    50    39    40    1
    51    41    51    1
    52    41    40    1
    53    41    52    1
    54    40    50    1
    55    40    49    1
