@<TRIPOS>MOLECULE
1_3H
 38 39 0 0 0
SMALL
GASTEIGER

@<TRIPOS>ATOM
      1 C          -1.3497    4.1555    0.7159 C.ar    1  LIG11      -0.0608
      2 C          -0.0362    4.3842    1.0965 C.ar    1  LIG11      -0.0565
      3 C           0.8936    3.3305    1.1067 C.ar    1  LIG11      -0.0214
      4 C           0.5183    2.0347    0.7214 C.ar    1  LIG11       0.0747
      5 C          -0.8229    1.7990    0.3323 C.ar    1  LIG11       0.0036
      6 C          -1.7400    2.8743    0.3388 C.ar    1  LIG11      -0.0523
      7 N           1.4371    1.0488    0.7295 N.ar    1  LIG11      -0.2513
      8 C           1.0813   -0.1994    0.3557 C.ar    1  LIG11       0.0423
      9 C          -0.2100   -0.5197   -0.0306 C.ar    1  LIG11      -0.0369
     10 C          -1.1827    0.4830   -0.0490 C.ar    1  LIG11      -0.0396
     11 C           2.1539   -1.2561    0.4079 C.3     1  LIG11      -0.0106
     12 C           2.1889   -1.9481    1.7703 C.3     1  LIG11      -0.0505
     13 C           3.2822   -3.0029    1.8293 C.3     1  LIG11      -0.0649
     14 H          -2.0684    4.9706    0.7108 H       1  LIG11       0.0618
     15 H           0.2685    5.3872    1.3868 H       1  LIG11       0.0621
     16 C           2.3219    3.6296    1.5165 C.3     1  LIG11      -0.0259
     17 H          -2.7757    2.7238    0.0450 H       1  LIG11       0.0624
     18 C          -2.5813    0.1252   -0.4743 C.3     1  LIG11      -0.0390
     19 H          -0.4552   -1.5390   -0.3132 H       1  LIG11       0.0638
     20 H           1.9907   -1.9889   -0.3920 H       1  LIG11       0.0328
     21 H           3.1240   -0.7858    0.2037 H       1  LIG11       0.0328
     22 H           1.2217   -2.4213    1.9793 H       1  LIG11       0.0266
     23 H           2.3580   -1.2097    2.5637 H       1  LIG11       0.0266
     24 H           3.1216   -3.7768    1.0720 H       1  LIG11       0.0230
     25 H           3.2908   -3.4855    2.8116 H       1  LIG11       0.0230
     26 H           4.2675   -2.5564    1.6616 H       1  LIG11       0.0230
     27 H          -2.8676    0.6976   -1.3625 H       1  LIG11       0.0278
     28 H          -3.2889    0.3240    0.3371 H       1  LIG11       0.0278
     29 H          -2.6660   -0.9369   -0.7287 H       1  LIG11       0.0278
     30 C           3.2129    3.9153    0.3062 C.3     1  LIG11      -0.0518
     31 C           4.6413    4.2201    0.7288 C.3     1  LIG11      -0.0650
     32 H           2.7251    2.7952    2.1039 H       1  LIG11       0.0314
     33 H           2.3317    4.4922    2.1957 H       1  LIG11       0.0314
     34 H           2.8163    4.7666   -0.2603 H       1  LIG11       0.0266
     35 H           3.2178    3.0568   -0.3759 H       1  LIG11       0.0266
     36 H           4.6786    5.0988    1.3805 H       1  LIG11       0.0230
     37 H           5.2615    4.4224   -0.1499 H       1  LIG11       0.0230
     38 H           5.0799    3.3735    1.2667 H       1  LIG11       0.0230
@<TRIPOS>BOND
     1    27    18    1
     2    29    18    1
     3    18    10    1
     4    18    28    1
     5    20    11    1
     6    35    30    1
     7    19     9    1
     8    34    30    1
     9    37    31    1
    10    10     9   ar
    11    10     5   ar
    12     9     8   ar
    13    17     6    1
    14    21    11    1
    15    30    31    1
    16    30    16    1
    17     5     6   ar
    18     5     4   ar
    19     6     1   ar
    20     8    11    1
    21     8     7   ar
    22    11    12    1
    23    14     1    1
    24     1     2   ar
    25     4     7   ar
    26     4     3   ar
    27    31    38    1
    28    31    36    1
    29    24    13    1
    30     2     3   ar
    31     2    15    1
    32     3    16    1
    33    16    32    1
    34    16    33    1
    35    26    13    1
    36    12    13    1
    37    12    22    1
    38    12    23    1
    39    13    25    1
