@<TRIPOS>MOLECULE
2_2D
 35 37 0 0 0
SMALL
GASTEIGER

@<TRIPOS>ATOM
      1 C          -1.3621    4.1536    0.7178 C.ar    1  LIG11      -0.0589
      2 C          -0.0512    4.3993    1.1001 C.ar    1  LIG11      -0.0293
      3 C           0.8608    3.3339    1.0914 C.ar    1  LIG11       0.1520
      4 C           0.5406    2.0298    0.7225 C.ar    1  LIG11       0.1014
      5 C          -0.7965    1.8086    0.3386 C.ar    1  LIG11       0.0026
      6 C          -1.7332    2.8634    0.3383 C.ar    1  LIG11      -0.0524
      7 N           1.4456    1.0236    0.7266 N.ar    1  LIG11      -0.2490
      8 C           1.0754   -0.2242    0.3575 C.ar    1  LIG11       0.0451
      9 C          -0.2251   -0.5110   -0.0340 C.ar    1  LIG11      -0.0395
     10 C          -1.1656    0.5140   -0.0418 C.ar    1  LIG11      -0.0508
     11 C           2.1307   -1.3197    0.3721 C.3     1  LIG11       0.0014
     12 C           2.7189   -1.5531    1.7750 C.3     1  LIG11      -0.0448
     13 C           3.8040   -0.5544    2.1770 C.3     1  LIG11      -0.0525
     14 N           2.2155    3.6112    1.4908 N.pl3   1  LIG11       0.0585
     15 O           2.9999    3.9771    0.6041 O.2     1  LIG11      -0.1261
     16 O           2.4679    3.5492    2.7024 O.2     1  LIG11      -0.1261
     17 C           4.8852   -0.4288    1.1105 C.3     1  LIG11      -0.0530
     18 C           4.2995   -0.0829   -0.2532 C.3     1  LIG11      -0.0525
     19 C           3.2273   -1.0842   -0.6809 C.3     1  LIG11      -0.0448
     20 H          -2.0945    4.9577    0.7133 H       1  LIG11       0.0618
     21 H           0.2581    5.3978    1.3991 H       1  LIG11       0.0641
     22 H          -2.7644    2.6803    0.0396 H       1  LIG11       0.0624
     23 H          -0.5141   -1.5141   -0.3313 H       1  LIG11       0.0636
     24 H          -2.1857    0.2931   -0.3472 H       1  LIG11       0.0625
     25 H           1.6217   -2.2526    0.0912 H       1  LIG11       0.0364
     26 H           3.1660   -2.5563    1.7929 H       1  LIG11       0.0272
     27 H           1.9249   -1.5559    2.5319 H       1  LIG11       0.0272
     28 H           3.3622    0.4287    2.3716 H       1  LIG11       0.0265
     29 H           4.2604   -0.8775    3.1200 H       1  LIG11       0.0265
     30 H           5.6071    0.3406    1.4071 H       1  LIG11       0.0265
     31 H           5.4385   -1.3734    1.0401 H       1  LIG11       0.0265
     32 H           3.8852    0.9308   -0.2311 H       1  LIG11       0.0265
     33 H           5.1017   -0.0714   -1.0004 H       1  LIG11       0.0265
     34 H           2.7873   -0.7652   -1.6337 H       1  LIG11       0.0272
     35 H           3.7241   -2.0442   -0.8760 H       1  LIG11       0.0272
@<TRIPOS>BOND
     1    34    19    1
     2    33    18    1
     3    35    19    1
     4    19    18    1
     5    19    11    1
     6    24    10    1
     7    23     9    1
     8    18    32    1
     9    18    17    1
    10    10     9   ar
    11    10     5   ar
    12     9     8   ar
    13    22     6    1
    14    25    11    1
    15     6     5   ar
    16     6     1   ar
    17     5     4   ar
    18     8    11    1
    19     8     7   ar
    20    11    12    1
    21    15    14    2
    22    20     1    1
    23     1     2   ar
    24     4     7   ar
    25     4     3   ar
    26    31    17    1
    27     3     2   ar
    28     3    14    1
    29     2    21    1
    30    17    30    1
    31    17    13    1
    32    14    16    2
    33    12    26    1
    34    12    13    1
    35    12    27    1
    36    13    28    1
    37    13    29    1
