@<TRIPOS>MOLECULE
2_2F
 43 44 0 0 0
SMALL
GASTEIGER
Energy = 0

@<TRIPOS>ATOM
      1 C          -1.3285    4.1912    0.7341 C.ar    1  LIG1       -0.0589
      2 C          -0.0194    4.4060    1.1091 C.ar    1  LIG1       -0.0293
      3 C           0.8533    3.3161    1.0858 C.ar    1  LIG1        0.1520
      4 C           0.4972    2.0218    0.7097 C.ar    1  LIG1        0.1017
      5 C          -0.8475    1.7843    0.3206 C.ar    1  LIG1        0.0063
      6 C          -1.7285    2.9069    0.3493 C.ar    1  LIG1       -0.0522
      7 N           1.4289    1.0518    0.7276 N.ar    1  LIG1       -0.2488
      8 C           1.1145   -0.2048    0.3705 C.ar    1  LIG1        0.0477
      9 C          -0.1788   -0.5264   -0.0243 C.ar    1  LIG1       -0.0356
     10 C          -1.2025    0.4439   -0.0655 C.ar    1  LIG1       -0.0310
     11 C           2.2277   -1.2587    0.4155 C.3     1  LIG1        0.0045
     12 C           3.5675   -0.6470    0.8844 C.3     1  LIG1       -0.0546
     13 C           2.4495   -1.8541   -0.9883 C.3     1  LIG1       -0.0546
     14 N           2.2179    3.5615    1.4814 N.pl3   1  LIG1        0.0585
     15 O           3.0009    3.9379    0.5974 O.2     1  LIG1       -0.1261
     16 O           2.4786    3.4695    2.6897 O.2     1  LIG1       -0.1261
     17 H          -2.0455    5.0092    0.7363 H       1  LIG1        0.0618
     18 H           0.3182    5.3933    1.4124 H       1  LIG1        0.0641
     19 H          -2.7707    2.8105    0.0673 H       1  LIG1        0.0624
     20 H          -0.3690   -1.5569   -0.3001 H       1  LIG1        0.0639
     21 C          -2.6256    0.0048   -0.5195 C.3     1  LIG1       -0.0120
     22 C           1.8531   -2.3812    1.4025 C.3     1  LIG1       -0.0546
     23 H           3.4841   -0.2204    1.8912 H       1  LIG1        0.0239
     24 H           3.9028    0.1506    0.2107 H       1  LIG1        0.0239
     25 H           4.3593   -1.4046    0.9144 H       1  LIG1        0.0239
     26 H           1.5629   -2.3821   -1.3568 H       1  LIG1        0.0239
     27 H           3.2757   -2.5745   -0.9853 H       1  LIG1        0.0239
     28 H           2.6917   -1.0711   -1.7166 H       1  LIG1        0.0239
     29 C          -3.6548    0.2101    0.6148 C.3     1  LIG1       -0.0560
     30 C          -2.7338   -1.5071   -0.8824 C.3     1  LIG1       -0.0560
     31 C          -3.0482    0.7480   -1.8068 C.3     1  LIG1       -0.0560
     32 H          -4.6432   -0.1637    0.3213 H       1  LIG1        0.0238
     33 H          -3.7962    1.2520    0.9030 H       1  LIG1        0.0238
     34 H          -3.3512   -0.3331    1.5180 H       1  LIG1        0.0238
     35 H          -3.7528   -1.7670   -1.1958 H       1  LIG1        0.0238
     36 H          -2.4946   -2.1490   -0.0262 H       1  LIG1        0.0238
     37 H          -2.0711   -1.7740   -1.7143 H       1  LIG1        0.0238
     38 H           0.9526   -2.9213    1.0897 H       1  LIG1        0.0239
     39 H           1.6637   -1.9797    2.4050 H       1  LIG1        0.0239
     40 H           2.6595   -3.1191    1.4852 H       1  LIG1        0.0239
     41 H          -2.3176    0.5835   -2.6081 H       1  LIG1        0.0238
     42 H          -3.1484    1.8267   -1.6843 H       1  LIG1        0.0238
     43 H          -4.0199    0.3889   -2.1670 H       1  LIG1        0.0238
@<TRIPOS>BOND
     1    41    31    1
     2    43    31    1
     3    31    42    1
     4    31    21    1
     5    28    13    1
     6    37    30    1
     7    26    13    1
     8    35    30    1
     9    13    27    1
    10    13    11    1
    11    30    21    1
    12    30    36    1
    13    21    10    1
    14    21    29    1
    15    20     9    1
    16    10     9   ar
    17    10     5   ar
    18     9     8   ar
    19    19     6    1
    20    24    12    1
    21     5     6   ar
    22     5     4   ar
    23    32    29    1
    24     6     1   ar
    25     8    11    1
    26     8     7   ar
    27    11    12    1
    28    11    22    1
    29    15    14    2
    30    29    33    1
    31    29    34    1
    32     4     7   ar
    33     4     3   ar
    34     1    17    1
    35     1     2   ar
    36    12    25    1
    37    12    23    1
    38     3     2   ar
    39     3    14    1
    40    38    22    1
    41     2    18    1
    42    22    40    1
    43    22    39    1
    44    14    16    2
