@<TRIPOS>MOLECULE
2_2G
 45 48 0 0 0
SMALL
GASTEIGER

@<TRIPOS>ATOM
      1 C          -1.3389    4.1807    0.7108 C.ar    1  LIG11      -0.0589
      2 C          -0.0325    4.4042    1.1040 C.ar    1  LIG11      -0.0293
      3 C           0.8542    3.3218    1.0994 C.ar    1  LIG11       0.1520
      4 C           0.5142    2.0231    0.7270 C.ar    1  LIG11       0.1016
      5 C          -0.8277    1.7918    0.3398 C.ar    1  LIG11       0.0061
      6 C          -1.7287    2.8933    0.3332 C.ar    1  LIG11      -0.0522
      7 N           1.4373    1.0402    0.7330 N.ar    1  LIG11      -0.2490
      8 C           1.0981   -0.2048    0.3408 C.ar    1  LIG11       0.0454
      9 C          -0.1949   -0.5228   -0.0424 C.ar    1  LIG11      -0.0361
     10 C          -1.1923    0.4636   -0.0287 C.ar    1  LIG11      -0.0333
     11 C           2.1783   -1.2652    0.3616 C.3     1  LIG11       0.0014
     12 C           3.4829   -0.8029   -0.3131 C.3     1  LIG11      -0.0448
     13 C           4.4447   -0.5197    0.8323 C.3     1  LIG11      -0.0524
     14 N           2.2128    3.5793    1.5039 N.pl3   1  LIG11       0.0585
     15 O           2.4699    3.4741    2.7117 O.2     1  LIG11      -0.1261
     16 O           2.9948    3.9757    0.6278 O.2     1  LIG11      -0.1261
     17 C           4.0899   -1.5912    1.8476 C.3     1  LIG11      -0.0524
     18 C           2.5675   -1.6438    1.8033 C.3     1  LIG11      -0.0448
     19 H          -2.0574    4.9970    0.6934 H       1  LIG11       0.0618
     20 H           0.2942    5.3969    1.4027 H       1  LIG11       0.0641
     21 H          -2.7628    2.7658    0.0210 H       1  LIG11       0.0624
     22 H          -0.4152   -1.5382   -0.3559 H       1  LIG11       0.0639
     23 C          -2.6122    0.1069   -0.4540 C.3     1  LIG11      -0.0152
     24 H           1.8172   -2.1553   -0.1694 H       1  LIG11       0.0364
     25 H           3.3649    0.0598   -0.9766 H       1  LIG11       0.0272
     26 H           3.8849   -1.6263   -0.9175 H       1  LIG11       0.0272
     27 H           4.2630    0.4777    1.2490 H       1  LIG11       0.0265
     28 H           5.4908   -0.5750    0.5181 H       1  LIG11       0.0265
     29 H           4.4677   -1.3604    2.8477 H       1  LIG11       0.0265
     30 H           4.5080   -2.5572    1.5400 H       1  LIG11       0.0265
     31 H           2.1539   -0.9428    2.5387 H       1  LIG11       0.0272
     32 H           2.1996   -2.6407    2.0692 H       1  LIG11       0.0272
     33 C          -3.0899   -1.3361   -0.1702 C.3     1  LIG11      -0.0462
     34 C          -3.2077   -2.0028   -1.5340 C.3     1  LIG11      -0.0525
     35 C          -3.6531   -0.8648   -2.4347 C.3     1  LIG11      -0.0525
     36 C          -2.7965    0.3052   -1.9716 C.3     1  LIG11      -0.0462
     37 H          -3.3140    0.7471    0.0927 H       1  LIG11       0.0349
     38 H          -4.0906   -1.2926    0.2808 H       1  LIG11       0.0271
     39 H          -2.4641   -1.9037    0.5240 H       1  LIG11       0.0271
     40 H          -3.9208   -2.8321   -1.5291 H       1  LIG11       0.0265
     41 H          -2.2344   -2.3882   -1.8585 H       1  LIG11       0.0265
     42 H          -4.7147   -0.6438   -2.2726 H       1  LIG11       0.0265
     43 H          -3.5086   -1.0906   -3.4951 H       1  LIG11       0.0265
     44 H          -3.2687    1.2660   -2.2021 H       1  LIG11       0.0271
     45 H          -1.8355    0.2812   -2.5010 H       1  LIG11       0.0271
@<TRIPOS>BOND
     1    43    35    1
     2    45    36    1
     3    35    42    1
     4    35    36    1
     5    35    34    1
     6    44    36    1
     7    36    23    1
     8    41    34    1
     9    34    40    1
    10    34    33    1
    11    25    12    1
    12    26    12    1
    13    23    33    1
    14    23    10    1
    15    23    37    1
    16    22     9    1
    17    12    11    1
    18    12    13    1
    19    33    38    1
    20    33    39    1
    21    24    11    1
    22     9    10   ar
    23     9     8   ar
    24    10     5   ar
    25    21     6    1
    26     6     5   ar
    27     6     1   ar
    28     5     4   ar
    29     8    11    1
    30     8     7   ar
    31    11    18    1
    32    28    13    1
    33    16    14    2
    34    19     1    1
    35     1     2   ar
    36     4     7   ar
    37     4     3   ar
    38    13    27    1
    39    13    17    1
    40     3     2   ar
    41     3    14    1
    42     2    20    1
    43    14    15    2
    44    30    17    1
    45    18    17    1
    46    18    32    1
    47    18    31    1
    48    17    29    1
