@<TRIPOS>MOLECULE
2_2H
 51 54 0 0 0
SMALL
GASTEIGER

@<TRIPOS>ATOM
      1 C          -1.3390    4.1815    0.7139 C.ar    1  LIG11      -0.0589
      2 C          -0.0323    4.4046    1.1050 C.ar    1  LIG11      -0.0293
      3 C           0.8542    3.3221    1.0976 C.ar    1  LIG11       0.1520
      4 C           0.5140    2.0233    0.7247 C.ar    1  LIG11       0.1016
      5 C          -0.8284    1.7914    0.3381 C.ar    1  LIG11       0.0061
      6 C          -1.7288    2.8944    0.3351 C.ar    1  LIG11      -0.0522
      7 N           1.4382    1.0412    0.7305 N.ar    1  LIG11      -0.2490
      8 C           1.0972   -0.2058    0.3473 C.ar    1  LIG11       0.0454
      9 C          -0.1944   -0.5239   -0.0419 C.ar    1  LIG11      -0.0361
     10 C          -1.1922    0.4621   -0.0333 C.ar    1  LIG11      -0.0333
     11 C           2.1858   -1.2616    0.3516 C.3     1  LIG11       0.0014
     12 C           2.7457   -1.4705    1.7680 C.3     1  LIG11      -0.0448
     13 C           3.8644   -2.5104    1.7787 C.3     1  LIG11      -0.0525
     14 N           2.2132    3.5805    1.5006 N.pl3   1  LIG11       0.0585
     15 O           2.9932    3.9797    0.6241 O.2     1  LIG11      -0.1261
     16 O           2.4719    3.4740    2.7079 O.2     1  LIG11      -0.1261
     17 C           4.9725   -2.1551    0.7917 C.3     1  LIG11      -0.0530
     18 C           4.4255   -1.9403   -0.6165 C.3     1  LIG11      -0.0525
     19 C           3.3083   -0.8989   -0.6342 C.3     1  LIG11      -0.0448
     20 H          -2.0577    4.9976    0.6984 H       1  LIG11       0.0618
     21 H           0.2949    5.3970    1.4044 H       1  LIG11       0.0641
     22 H          -2.7632    2.7697    0.0231 H       1  LIG11       0.0624
     23 H          -0.4099   -1.5395   -0.3557 H       1  LIG11       0.0639
     24 C          -2.6168    0.1002   -0.4580 C.3     1  LIG11      -0.0152
     25 H           1.7506   -2.2158    0.0231 H       1  LIG11       0.0364
     26 H           1.9449   -1.7909    2.4460 H       1  LIG11       0.0272
     27 H           3.1347   -0.5256    2.1698 H       1  LIG11       0.0272
     28 H           4.2824   -2.5910    2.7885 H       1  LIG11       0.0265
     29 H           3.4505   -3.4941    1.5249 H       1  LIG11       0.0265
     30 H           5.4815   -1.2433    1.1279 H       1  LIG11       0.0265
     31 H           5.7233   -2.9532    0.7776 H       1  LIG11       0.0265
     32 H           5.2359   -1.6220   -1.2820 H       1  LIG11       0.0265
     33 H           4.0443   -2.8909   -1.0094 H       1  LIG11       0.0265
     34 H           3.7332    0.0829   -0.3870 H       1  LIG11       0.0272
     35 H           2.9044   -0.8162   -1.6509 H       1  LIG11       0.0272
     36 C          -3.0835   -1.3134   -0.0476 C.3     1  LIG11      -0.0462
     37 C          -4.5320   -1.5600   -0.4698 C.3     1  LIG11      -0.0525
     38 C          -4.7152   -1.3508   -1.9703 C.3     1  LIG11      -0.0530
     39 C          -4.2324    0.0276   -2.4118 C.3     1  LIG11      -0.0525
     40 C          -2.7935    0.2979   -1.9735 C.3     1  LIG11      -0.0462
     41 H          -3.3062    0.7752    0.0630 H       1  LIG11       0.0349
     42 H          -2.9927   -1.4391    1.0381 H       1  LIG11       0.0271
     43 H          -2.4616   -2.0870   -0.5125 H       1  LIG11       0.0271
     44 H          -4.8246   -2.5816   -0.2024 H       1  LIG11       0.0265
     45 H          -5.1963   -0.8824    0.0803 H       1  LIG11       0.0265
     46 H          -4.1588   -2.1228   -2.5161 H       1  LIG11       0.0265
     47 H          -5.7718   -1.4731   -2.2334 H       1  LIG11       0.0265
     48 H          -4.3065    0.1115   -3.5019 H       1  LIG11       0.0265
     49 H          -4.8905    0.7961   -1.9879 H       1  LIG11       0.0265
     50 H          -2.1165   -0.3714   -2.5207 H       1  LIG11       0.0271
     51 H          -2.5204    1.3199   -2.2631 H       1  LIG11       0.0271
@<TRIPOS>BOND
     1    48    39    1
     2    50    40    1
     3    46    38    1
     4    39    49    1
     5    39    40    1
     6    39    38    1
     7    51    40    1
     8    47    38    1
     9    40    24    1
    10    38    37    1
    11    35    19    1
    12    32    18    1
    13    33    18    1
    14    19    18    1
    15    19    34    1
    16    19    11    1
    17    18    17    1
    18    43    36    1
    19    37    44    1
    20    37    36    1
    21    37    45    1
    22    24    36    1
    23    24    10    1
    24    24    41    1
    25    23     9    1
    26    36    42    1
    27     9    10   ar
    28     9     8   ar
    29    10     5   ar
    30    22     6    1
    31    25    11    1
    32     6     5   ar
    33     6     1   ar
    34     5     4   ar
    35     8    11    1
    36     8     7   ar
    37    11    12    1
    38    15    14    2
    39    20     1    1
    40     1     2   ar
    41     4     7   ar
    42     4     3   ar
    43    31    17    1
    44    17    30    1
    45    17    13    1
    46     3     2   ar
    47     3    14    1
    48     2    21    1
    49    14    16    2
    50    29    13    1
    51    12    13    1
    52    12    27    1
    53    12    26    1
    54    13    28    1
