@<TRIPOS>MOLECULE
2_3B
 35 37 0 0 0
SMALL
GASTEIGER

@<TRIPOS>ATOM
      1 C          -1.3562    4.1420    0.7086 C.ar    1  LIG11      -0.0593
      2 C          -0.0378    4.3831    1.0828 C.ar    1  LIG11      -0.0389
      3 C           0.8897    3.3341    1.1208 C.ar    1  LIG11       0.0509
      4 C           0.5262    2.0356    0.7190 C.ar    1  LIG11       0.0918
      5 C          -0.8115    1.8049    0.3388 C.ar    1  LIG11       0.0022
      6 C          -1.7445    2.8561    0.3418 C.ar    1  LIG11      -0.0524
      7 N           1.4451    1.0415    0.7306 N.ar    1  LIG11      -0.2495
      8 C           1.0748   -0.2066    0.3531 C.ar    1  LIG11       0.0451
      9 C          -0.2237   -0.5078   -0.0370 C.ar    1  LIG11      -0.0395
     10 C          -1.1735    0.5079   -0.0416 C.ar    1  LIG11      -0.0508
     11 C           2.1400   -1.2858    0.3669 C.3     1  LIG11       0.0014
     12 C           2.6965   -1.4950    1.7846 C.3     1  LIG11      -0.0448
     13 C           3.7913   -2.5601    1.8034 C.3     1  LIG11      -0.0525
     14 N           2.2498    3.6335    1.4001 N.pl3   1  LIG11      -0.3563
     15 H           2.3670    4.3098    2.1451 H       1  LIG11       0.1424
     16 H           2.7505    2.7570    1.5662 H       1  LIG11       0.1424
     17 C           4.9062   -2.2389    0.8122 C.3     1  LIG11      -0.0530
     18 C           4.3626   -2.0237   -0.5973 C.3     1  LIG11      -0.0525
     19 C           3.2695   -0.9572   -0.6229 C.3     1  LIG11      -0.0448
     20 H          -2.0747    4.9571    0.6892 H       1  LIG11       0.0618
     21 H           0.2717    5.3934    1.3361 H       1  LIG11       0.0637
     22 H          -2.7760    2.6793    0.0458 H       1  LIG11       0.0624
     23 H          -0.5016   -1.5131   -0.3356 H       1  LIG11       0.0636
     24 H          -2.1923    0.2823   -0.3456 H       1  LIG11       0.0625
     25 H           1.6829   -2.2327    0.0470 H       1  LIG11       0.0364
     26 H           1.8894   -1.7913    2.4660 H       1  LIG11       0.0272
     27 H           3.1074   -0.5558    2.1778 H       1  LIG11       0.0272
     28 H           4.2085   -2.6413    2.8134 H       1  LIG11       0.0265
     29 H           3.3548   -3.5362    1.5587 H       1  LIG11       0.0265
     30 H           5.4364   -1.3363    1.1401 H       1  LIG11       0.0265
     31 H           5.6383   -3.0542    0.8043 H       1  LIG11       0.0265
     32 H           5.1794   -1.7298   -1.2662 H       1  LIG11       0.0265
     33 H           3.9594   -2.9687   -0.9816 H       1  LIG11       0.0265
     34 H           3.7168    0.0167   -0.3842 H       1  LIG11       0.0272
     35 H           2.8666   -0.8740   -1.6399 H       1  LIG11       0.0272
@<TRIPOS>BOND
     1    35    19    1
     2    32    18    1
     3    33    18    1
     4    19    18    1
     5    19    34    1
     6    19    11    1
     7    18    17    1
     8    24    10    1
     9    23     9    1
    10    10     9   ar
    11    10     5   ar
    12     9     8   ar
    13    22     6    1
    14    25    11    1
    15     5     6   ar
    16     5     4   ar
    17     6     1   ar
    18     8    11    1
    19     8     7   ar
    20    11    12    1
    21    20     1    1
    22     1     2   ar
    23     4     7   ar
    24     4     3   ar
    25    31    17    1
    26    17    30    1
    27    17    13    1
    28     2     3   ar
    29     2    21    1
    30     3    14    1
    31    14    16    1
    32    14    15    1
    33    29    13    1
    34    12    13    1
    35    12    27    1
    36    12    26    1
    37    13    28    1
