@<TRIPOS>MOLECULE
2_4C
 40 42 0 0 0
SMALL
GASTEIGER

@<TRIPOS>ATOM
      1 C          -1.3557    4.1374    0.7151 C.ar    1  LIG11      -0.0593
      2 C          -0.0383    4.3794    1.0987 C.ar    1  LIG11      -0.0384
      3 C           0.8942    3.3377    1.1019 C.ar    1  LIG11       0.0596
      4 C           0.5234    2.0376    0.7202 C.ar    1  LIG11       0.0924
      5 C          -0.8120    1.8060    0.3342 C.ar    1  LIG11       0.0022
      6 C          -1.7436    2.8563    0.3339 C.ar    1  LIG11      -0.0524
      7 N           1.4448    1.0436    0.7304 N.ar    1  LIG11      -0.2495
      8 C           1.0734   -0.2070    0.3594 C.ar    1  LIG11       0.0451
      9 C          -0.2244   -0.5084   -0.0324 C.ar    1  LIG11      -0.0395
     10 C          -1.1731    0.5083   -0.0444 C.ar    1  LIG11      -0.0508
     11 C           2.1358   -1.2889    0.3868 C.3     1  LIG11       0.0014
     12 C           2.6652   -1.5037    1.8140 C.3     1  LIG11      -0.0448
     13 C           3.7588   -2.5694    1.8501 C.3     1  LIG11      -0.0525
     14 N           2.2498    3.5040    1.4777 N.am    1  LIG11      -0.2840
     15 C           2.8905    4.6452    1.9019 C.2     1  LIG11       0.2141
     16 O           2.3901    5.7544    2.0547 O.2     1  LIG11      -0.2758
     17 C           4.8925   -2.2456    0.8814 C.3     1  LIG11      -0.0530
     18 C           4.3758   -2.0259   -0.5375 C.3     1  LIG11      -0.0525
     19 C           3.2842   -0.9583   -0.5803 C.3     1  LIG11      -0.0448
     20 C           4.3460    4.4065    2.2170 C.3     1  LIG11       0.0125
     21 H          -2.0768    4.9513    0.7148 H       1  LIG11       0.0618
     22 H           0.2351    5.3887    1.3902 H       1  LIG11       0.0637
     23 H          -2.7753    2.6823    0.0368 H       1  LIG11       0.0624
     24 H          -0.5037   -1.5152   -0.3255 H       1  LIG11       0.0636
     25 H          -2.1917    0.2821   -0.3496 H       1  LIG11       0.0625
     26 H           1.6829   -2.2334    0.0542 H       1  LIG11       0.0364
     27 H           1.8451   -1.8018    2.4790 H       1  LIG11       0.0272
     28 H           3.0688   -0.5659    2.2182 H       1  LIG11       0.0272
     29 H           4.1567   -2.6543    2.8676 H       1  LIG11       0.0265
     30 H           3.3265   -3.5445    1.5938 H       1  LIG11       0.0265
     31 H           2.7780    2.6351    1.4179 H       1  LIG11       0.1549
     32 H           5.4165   -1.3440    1.2220 H       1  LIG11       0.0265
     33 H           5.6245   -3.0610    0.8849 H       1  LIG11       0.0265
     34 H           5.2052   -1.7307   -1.1900 H       1  LIG11       0.0265
     35 H           3.9791   -2.9694   -0.9321 H       1  LIG11       0.0265
     36 H           3.7282    0.0143   -0.3302 H       1  LIG11       0.0272
     37 H           2.9007   -0.8713   -1.6045 H       1  LIG11       0.0272
     38 H           4.9156    5.3147    1.9997 H       1  LIG11       0.0323
     39 H           4.7579    3.5964    1.6083 H       1  LIG11       0.0323
     40 H           4.4483    4.1545    3.2757 H       1  LIG11       0.0323
@<TRIPOS>BOND
     1    37    19    1
     2    34    18    1
     3    35    18    1
     4    19    18    1
     5    19    36    1
     6    19    11    1
     7    18    17    1
     8    25    10    1
     9    24     9    1
    10    10     9   ar
    11    10     5   ar
    12     9     8   ar
    13    23     6    1
    14    26    11    1
    15     6     5   ar
    16     6     1   ar
    17     5     4   ar
    18     8    11    1
    19     8     7   ar
    20    11    12    1
    21    21     1    1
    22     1     2   ar
    23     4     7   ar
    24     4     3   ar
    25    17    33    1
    26    17    32    1
    27    17    13    1
    28     2     3   ar
    29     2    22    1
    30     3    14    1
    31    31    14    1
    32    14    15   am
    33    30    13    1
    34    39    20    1
    35    12    13    1
    36    12    28    1
    37    12    27    1
    38    13    29    1
    39    15    16    2
    40    15    20    1
    41    38    20    1
    42    20    40    1
