@<TRIPOS>MOLECULE
2_4E
 56 59 0 0 0
SMALL
GASTEIGER

@<TRIPOS>ATOM
      1 C          -1.3344    4.1611    0.7312 C.ar    1  LIG11      -0.0593
      2 C          -0.0167    4.3839    1.1059 C.ar    1  LIG11      -0.0384
      3 C           0.8909    3.3261    1.0946 C.ar    1  LIG11       0.0598
      4 C           0.4962    2.0336    0.7084 C.ar    1  LIG11       0.0927
      5 C          -0.8421    1.7898    0.3183 C.ar    1  LIG11       0.0057
      6 C          -1.7410    2.8848    0.3445 C.ar    1  LIG11      -0.0522
      7 N           1.4345    1.0651    0.7307 N.ar    1  LIG11      -0.2494
      8 C           1.0930   -0.1903    0.3746 C.ar    1  LIG11       0.0454
      9 C          -0.1963   -0.5218   -0.0221 C.ar    1  LIG11      -0.0361
     10 C          -1.1953    0.4586   -0.0692 C.ar    1  LIG11      -0.0334
     11 C           2.1780   -1.2494    0.4256 C.3     1  LIG11       0.0014
     12 C           2.6904   -1.4411    1.8624 C.3     1  LIG11      -0.0448
     13 C           3.8066   -2.4819    1.9236 C.3     1  LIG11      -0.0525
     14 N           2.2515    3.4641    1.4635 N.am    1  LIG11      -0.2764
     15 C           2.9392    4.5934    1.8846 C.2     1  LIG11       0.3215
     16 O           2.4445    5.7143    2.0102 O.2     1  LIG11      -0.2657
     17 C           4.9474   -2.1404    0.9695 C.3     1  LIG11      -0.0530
     18 C           4.4475   -1.9438   -0.4587 C.3     1  LIG11      -0.0525
     19 C           3.3337   -0.9010   -0.5268 C.3     1  LIG11      -0.0448
     20 C           4.4231    4.3071    2.1904 C.3     1  LIG11       0.4697
     21 H          -2.0472    4.9825    0.7396 H       1  LIG11       0.0618
     22 H           0.2713    5.3872    1.4017 H       1  LIG11       0.0637
     23 H          -2.7828    2.7627    0.0597 H       1  LIG11       0.0624
     24 H          -0.4012   -1.5506   -0.2840 H       1  LIG11       0.0639
     25 C          -2.6208    0.1141   -0.5221 C.3     1  LIG11      -0.0152
     26 H           1.7520   -2.2064    0.0936 H       1  LIG11       0.0364
     27 H           1.8670   -1.7522    2.5173 H       1  LIG11       0.0272
     28 H           3.0669   -0.4915    2.2648 H       1  LIG11       0.0272
     29 H           4.1907   -2.5500    2.9477 H       1  LIG11       0.0265
     30 H           3.4000   -3.4683    1.6687 H       1  LIG11       0.0265
     31 H           2.7684    2.5825    1.3957 H       1  LIG11       0.1551
     32 H           5.4458   -1.2245    1.3105 H       1  LIG11       0.0265
     33 H           5.6974   -2.9391    0.9909 H       1  LIG11       0.0265
     34 H           5.2801   -1.6358   -1.1013 H       1  LIG11       0.0265
     35 H           4.0776   -2.8990   -0.8512 H       1  LIG11       0.0265
     36 H           3.7526    0.0830   -0.2778 H       1  LIG11       0.0272
     37 H           2.9639   -0.8303   -1.5572 H       1  LIG11       0.0272
     38 F           5.2686    5.0416    1.4164 F       1  LIG11      -0.1620
     39 F           4.7516    2.9982    1.9740 F       1  LIG11      -0.1620
     40 F           4.7506    4.5693    3.4856 F       1  LIG11      -0.1620
     41 C          -3.0828   -1.3566   -0.3719 C.3     1  LIG11      -0.0462
     42 C          -2.7536   -2.2875   -1.5427 C.3     1  LIG11      -0.0525
     43 C          -3.0833   -1.6725   -2.8947 C.3     1  LIG11      -0.0530
     44 C          -2.4429   -0.3005   -3.0457 C.3     1  LIG11      -0.0525
     45 C          -2.9125    0.6420   -1.9423 C.3     1  LIG11      -0.0462
     46 H          -3.2753    0.6582    0.1731 H       1  LIG11       0.0349
     47 H          -4.1782   -1.3436   -0.2795 H       1  LIG11       0.0271
     48 H          -2.7121   -1.7897    0.5649 H       1  LIG11       0.0271
     49 H          -1.6970   -2.5686   -1.5321 H       1  LIG11       0.0265
     50 H          -3.3127   -3.2235   -1.4242 H       1  LIG11       0.0265
     51 H          -2.7349   -2.3345   -3.6954 H       1  LIG11       0.0265
     52 H          -4.1714   -1.5863   -3.0036 H       1  LIG11       0.0265
     53 H          -1.3505   -0.3904   -3.0264 H       1  LIG11       0.0265
     54 H          -2.7114    0.1200   -4.0216 H       1  LIG11       0.0265
     55 H          -2.4675    1.6291   -2.1086 H       1  LIG11       0.0271
     56 H          -3.9980    0.7758   -2.0439 H       1  LIG11       0.0271
@<TRIPOS>BOND
     1    54    44    1
     2    51    43    1
     3    44    53    1
     4    44    43    1
     5    44    45    1
     6    52    43    1
     7    43    42    1
     8    55    45    1
     9    56    45    1
    10    45    25    1
    11    37    19    1
    12    42    49    1
    13    42    50    1
    14    42    41    1
    15    34    18    1
    16    35    18    1
    17    19    18    1
    18    19    36    1
    19    19    11    1
    20    25    41    1
    21    25    10    1
    22    25    46    1
    23    18    17    1
    24    41    47    1
    25    41    48    1
    26    24     9    1
    27    10     9   ar
    28    10     5   ar
    29     9     8   ar
    30    23     6    1
    31    26    11    1
    32     5     6   ar
    33     5     4   ar
    34     6     1   ar
    35     8    11    1
    36     8     7   ar
    37    11    12    1
    38     4     7   ar
    39     4     3   ar
    40     1    21    1
    41     1     2   ar
    42    17    33    1
    43    17    32    1
    44    17    13    1
    45     3     2   ar
    46     3    14    1
    47     2    22    1
    48    31    14    1
    49    38    20    1
    50    14    15   am
    51    30    13    1
    52    12    13    1
    53    12    28    1
    54    12    27    1
    55    15    16    2
    56    15    20    1
    57    13    29    1
    58    39    20    1
    59    20    40    1
