@<TRIPOS>MOLECULE
2_6B
 41 42 0 0 0
SMALL
GASTEIGER

@<TRIPOS>ATOM
      1 C          -1.3411    4.1871    0.7157 C.ar    1  LIG11       0.1230
      2 C          -0.0348    4.4078    1.1052 C.ar    1  LIG11       0.0124
      3 C           0.8496    3.3211    1.0954 C.ar    1  LIG11       0.1554
      4 C           0.5140    2.0216    0.7233 C.ar    1  LIG11       0.1019
      5 C          -0.8257    1.7906    0.3375 C.ar    1  LIG11       0.0095
      6 C          -1.7237    2.8946    0.3377 C.ar    1  LIG11      -0.0104
      7 N           1.4387    1.0397    0.7297 N.ar    1  LIG11      -0.2490
      8 C           1.0968   -0.2085    0.3487 C.ar    1  LIG11       0.0449
      9 C          -0.1947   -0.5258   -0.0411 C.ar    1  LIG11      -0.0361
     10 C          -1.1904    0.4627   -0.0352 C.ar    1  LIG11      -0.0337
     11 C           2.1835   -1.2657    0.3569 C.3     1  LIG11      -0.0043
     12 C           2.7404   -1.4598    1.7682 C.3     1  LIG11      -0.0572
     13 C           3.2999   -0.9020   -0.6231 C.3     1  LIG11      -0.0572
     14 N           2.2079    3.5808    1.4986 N.pl3   1  LIG11       0.0587
     15 O           2.9857    3.9856    0.6230 O.2     1  LIG11      -0.1261
     16 O           2.4656    3.4758    2.7060 O.2     1  LIG11      -0.1261
     17 O          -2.3349    5.1213    0.6551 O.3     1  LIG11      -0.4950
     18 H           0.3242    5.3849    1.4105 H       1  LIG11       0.0678
     19 H          -2.7584    2.7650    0.0273 H       1  LIG11       0.0661
     20 H          -0.4153   -1.5419   -0.3514 H       1  LIG11       0.0639
     21 C          -2.6135    0.1014   -0.4629 C.3     1  LIG11      -0.0208
     22 H           1.7561   -2.2237    0.0341 H       1  LIG11       0.0358
     23 H           3.2208   -0.5496    2.1446 H       1  LIG11       0.0236
     24 H           3.4857   -2.2622    1.7823 H       1  LIG11       0.0236
     25 H           1.9430   -1.7294    2.4698 H       1  LIG11       0.0236
     26 H           3.8006    0.0311   -0.3409 H       1  LIG11       0.0236
     27 H           2.9042   -0.7735   -1.6368 H       1  LIG11       0.0236
     28 H           4.0577   -1.6921   -0.6560 H       1  LIG11       0.0236
     29 C          -3.0582   -1.3155   -0.0716 C.3     1  LIG11      -0.0586
     30 C          -2.7800    0.3060   -1.9708 C.3     1  LIG11      -0.0586
     31 H          -3.3155    0.7610    0.0586 H       1  LIG11       0.0344
     32 H          -4.1301   -1.4419   -0.2615 H       1  LIG11       0.0235
     33 H          -2.8840   -1.5031    0.9936 H       1  LIG11       0.0235
     34 H          -2.5375   -2.0885   -0.6463 H       1  LIG11       0.0235
     35 H          -2.5468    1.3359   -2.2621 H       1  LIG11       0.0235
     36 H          -3.8103    0.0985   -2.2792 H       1  LIG11       0.0235
     37 H          -2.1180   -0.3567   -2.5397 H       1  LIG11       0.0235
     38 C          -1.9974    6.4533    1.0270 C.3     1  LIG11       0.0788
     39 H          -2.8968    7.0676    0.9223 H       1  LIG11       0.0660
     40 H          -1.2315    6.8656    0.3620 H       1  LIG11       0.0660
     41 H          -1.6798    6.5012    2.0738 H       1  LIG11       0.0660
@<TRIPOS>BOND
     1    37    30    1
     2    36    30    1
     3    35    30    1
     4    30    21    1
     5    27    13    1
     6    28    13    1
     7    34    29    1
     8    13    26    1
     9    13    11    1
    10    21    29    1
    11    21    10    1
    12    21    31    1
    13    20     9    1
    14    32    29    1
    15    29    33    1
    16     9    10   ar
    17     9     8   ar
    18    10     5   ar
    19    19     6    1
    20    22    11    1
    21     5     6   ar
    22     5     4   ar
    23     6     1   ar
    24     8    11    1
    25     8     7   ar
    26    11    12    1
    27    40    38    1
    28    15    14    2
    29    17     1    1
    30    17    38    1
    31     1     2   ar
    32     4     7   ar
    33     4     3   ar
    34    39    38    1
    35    38    41    1
    36     3     2   ar
    37     3    14    1
    38     2    18    1
    39    14    16    2
    40    12    24    1
    41    12    23    1
    42    12    25    1
