@<TRIPOS>MOLECULE
2_6H
 39 41 0 0 0
SMALL
GASTEIGER
Energy = 0

@<TRIPOS>ATOM
      1 C          -1.3428    4.1832    0.7150 C.ar    1  LIG1        0.1230
      2 C          -0.0334    4.3997    1.1040 C.ar    1  LIG1        0.0124
      3 C           0.8556    3.3219    1.0968 C.ar    1  LIG1        0.1554
      4 C           0.5197    2.0232    0.7248 C.ar    1  LIG1        0.1016
      5 C          -0.8243    1.7912    0.3376 C.ar    1  LIG1        0.0095
      6 C          -1.7288    2.8946    0.3361 C.ar    1  LIG1       -0.0104
      7 N           1.4446    1.0409    0.7315 N.ar    1  LIG1       -0.2527
      8 C           1.0835   -0.1951    0.3487 C.ar    1  LIG1        0.0286
      9 C          -0.1955   -0.5276   -0.0412 C.ar    1  LIG1       -0.0395
     10 C          -1.1899    0.4589   -0.0363 C.ar    1  LIG1       -0.0335
     11 C          -2.6153    0.0997   -0.4627 C.3     1  LIG1       -0.0152
     12 C          -3.0657   -1.3361   -0.1158 C.3     1  LIG1       -0.0462
     13 C          -4.5180   -1.5739   -0.5299 C.3     1  LIG1       -0.0525
     14 N           2.2119    3.5874    1.5005 N.pl3   1  LIG1        0.0587
     15 O           2.9937    3.9779    0.6219 O.2     1  LIG1       -0.1261
     16 O           2.4685    3.4883    2.7088 O.2     1  LIG1       -0.1261
     17 O          -2.1388    5.2915    0.7434 O.3     1  LIG1       -0.4950
     18 C          -4.7231   -1.2956   -2.0162 C.3     1  LIG1       -0.0530
     19 C          -4.2538    0.1047   -2.3991 C.3     1  LIG1       -0.0525
     20 C          -2.8111    0.3634   -1.9663 C.3     1  LIG1       -0.0462
     21 H           0.2935    5.3924    1.4040 H       1  LIG1        0.0678
     22 H          -2.7531    2.7324    0.0197 H       1  LIG1        0.0661
     23 H           1.8778   -0.9365    0.3625 H       1  LIG1        0.0830
     24 H          -0.3902   -1.5494   -0.3457 H       1  LIG1        0.0636
     25 H          -3.3037    0.7433    0.0988 H       1  LIG1        0.0349
     26 H          -2.9594   -1.5144    0.9611 H       1  LIG1        0.0271
     27 H          -2.4436   -2.0796   -0.6276 H       1  LIG1        0.0271
     28 H          -4.7995   -2.6093   -0.3073 H       1  LIG1        0.0265
     29 H          -5.1796   -0.9283    0.0604 H       1  LIG1        0.0265
     30 H          -4.1701   -2.0378   -2.6051 H       1  LIG1        0.0265
     31 H          -5.7826   -1.4119   -2.2706 H       1  LIG1        0.0265
     32 H          -4.3420    0.2386   -3.4832 H       1  LIG1        0.0265
     33 H          -4.9109    0.8488   -1.9319 H       1  LIG1        0.0265
     34 H          -2.1370   -0.2777   -2.5497 H       1  LIG1        0.0271
     35 H          -2.5471    1.3981   -2.2160 H       1  LIG1        0.0271
     36 H          -3.9878    6.1062    0.4431 H       1  LIG1        0.0660
     37 H          -4.0188    4.4376    1.0272 H       1  LIG1        0.0660
     38 C          -3.4988    5.1310    0.3581 C.3     1  LIG1        0.0788
     39 H          -3.5770    4.8083   -0.6853 H       1  LIG1        0.0660
@<TRIPOS>BOND
     1    32    19    1
     2    30    18    1
     3    34    20    1
     4    19    18    1
     5    19    20    1
     6    19    33    1
     7    31    18    1
     8    35    20    1
     9    18    13    1
    10    20    11    1
    11    39    38    1
    12    27    12    1
    13    13    28    1
    14    13    12    1
    15    13    29    1
    16    11    12    1
    17    11    10    1
    18    11    25    1
    19    24     9    1
    20    12    26    1
    21     9    10   ar
    22     9     8   ar
    23    10     5   ar
    24    22     6    1
    25     6     5   ar
    26     6     1   ar
    27     5     4   ar
    28     8    23    1
    29     8     7   ar
    30    38    36    1
    31    38    17    1
    32    38    37    1
    33    15    14    2
    34     1    17    1
    35     1     2   ar
    36     4     7   ar
    37     4     3   ar
    38     3     2   ar
    39     3    14    1
    40     2    21    1
    41    14    16    2
