@<TRIPOS>MOLECULE
2_7B
 36 38 0 0 0
SMALL
GASTEIGER

@<TRIPOS>ATOM
      1 C          -1.3461    4.1654    0.7321 C.ar    1  LIG11       0.1225
      2 C          -0.0283    4.3758    1.1165 C.ar    1  LIG11       0.0028
      3 C           0.8983    3.3305    1.0789 C.ar    1  LIG11       0.0543
      4 C           0.5072    2.0300    0.7155 C.ar    1  LIG11       0.0920
      5 C          -0.8334    1.7921    0.3201 C.ar    1  LIG11       0.0091
      6 C          -1.7388    2.8869    0.3354 C.ar    1  LIG11      -0.0104
      7 N           1.4430    1.0581    0.7325 N.ar    1  LIG11      -0.2531
      8 C           1.0774   -0.1840    0.3743 C.ar    1  LIG11       0.0286
      9 C          -0.1994   -0.5254   -0.0245 C.ar    1  LIG11      -0.0395
     10 C          -1.1912    0.4616   -0.0638 C.ar    1  LIG11      -0.0335
     11 C          -2.6013    0.1190   -0.5151 C.3     1  LIG11      -0.0152
     12 C          -3.0224   -1.3573   -0.5499 C.3     1  LIG11      -0.0462
     13 C          -4.3354   -1.3162   -1.3193 C.3     1  LIG11      -0.0525
     14 N           2.2061    3.5615    1.5878 N.pl3   1  LIG11      -0.3562
     15 H           0.2780    5.3610    1.4574 H       1  LIG11       0.0673
     16 H          -2.7677    2.7211    0.0401 H       1  LIG11       0.0661
     17 O          -2.1449    5.2733    0.7932 O.3     1  LIG11      -0.4950
     18 H           1.8675   -0.9284    0.4146 H       1  LIG11       0.0830
     19 C          -4.1330   -0.2376   -2.3807 C.3     1  LIG11      -0.0525
     20 C          -2.8943    0.5552   -1.9574 C.3     1  LIG11      -0.0462
     21 H          -0.3889   -1.5559   -0.2988 H       1  LIG11       0.0636
     22 H          -3.3053    0.6138    0.1685 H       1  LIG11       0.0349
     23 H          -3.1413   -1.7831    0.4512 H       1  LIG11       0.0271
     24 H          -2.3125   -1.9798   -1.1060 H       1  LIG11       0.0271
     25 H          -5.1541   -1.0280   -0.6491 H       1  LIG11       0.0265
     26 H          -4.5894   -2.2859   -1.7577 H       1  LIG11       0.0265
     27 H           2.8044    2.7753    1.3227 H       1  LIG11       0.1424
     28 H           2.5853    4.4638    1.3258 H       1  LIG11       0.1424
     29 H          -3.9792   -0.6815   -3.3704 H       1  LIG11       0.0265
     30 H          -5.0156    0.4078   -2.4443 H       1  LIG11       0.0265
     31 H          -2.0555    0.3025   -2.6189 H       1  LIG11       0.0271
     32 H          -3.0614    1.6328   -2.0494 H       1  LIG11       0.0271
     33 H          -4.0030    6.0827    0.5440 H       1  LIG11       0.0660
     34 H          -4.0142    4.4053    1.1019 H       1  LIG11       0.0660
     35 H          -3.6095    4.8056   -0.6132 H       1  LIG11       0.0660
     36 C          -3.5109    5.1116    0.4335 C.3     1  LIG11       0.0788
@<TRIPOS>BOND
     1    29    19    1
     2    31    20    1
     3    30    19    1
     4    19    20    1
     5    19    13    1
     6    32    20    1
     7    20    11    1
     8    26    13    1
     9    13    25    1
    10    13    12    1
    11    24    12    1
    12    35    36    1
    13    12    11    1
    14    12    23    1
    15    11    10    1
    16    11    22    1
    17    21     9    1
    18    10     9   ar
    19    10     5   ar
    20     9     8   ar
    21    16     6    1
    22     5     6   ar
    23     5     4   ar
    24     6     1   ar
    25     8    18    1
    26     8     7   ar
    27    36    33    1
    28    36    17    1
    29    36    34    1
    30     4     7   ar
    31     4     3   ar
    32     1    17    1
    33     1     2   ar
    34     3     2   ar
    35     3    14    1
    36     2    15    1
    37    27    14    1
    38    28    14    1
