@<TRIPOS>MOLECULE
3_1
 20 21 0 0 0
SMALL
GASTEIGER
Energy = 0

@<TRIPOS>ATOM
      1 C          -1.3509    4.1394    0.7169 C.ar    1  LIG1       -0.0611
      2 C          -0.0342    4.3713    1.0981 C.ar    1  LIG1       -0.0597
      3 C           0.8873    3.3199    1.0957 C.ar    1  LIG1       -0.0357
      4 C           0.5259    2.0335    0.7198 C.ar    1  LIG1        0.0719
      5 C          -0.8129    1.8029    0.3332 C.ar    1  LIG1        0.0004
      6 C          -1.7420    2.8578    0.3345 C.ar    1  LIG1       -0.0526
      7 N           1.4500    1.0598    0.7353 N.ar    1  LIG1       -0.2401
      8 CA          1.0666   -0.1889    0.3622 C.ar    1  LIG1        0.1481
      9 C          -0.2248   -0.5092   -0.0327 C.ar    1  LIG1       -0.0287
     10 C          -1.1762    0.5044   -0.0461 C.ar    1  LIG1       -0.0503
     11 C           2.0946   -1.2716    0.3799 C.2     1  LIG1        0.3553
     12 O           1.9020   -2.4362    0.0717 O.2     1  LIG1       -0.2434
     13 OXT         3.3114   -0.8532    0.7803 O.3     1  LIG1       -0.4761
     14 H          -2.0713    4.9536    0.7172 H       1  LIG1        0.0618
     15 H           0.2819    5.3672    1.3982 H       1  LIG1        0.0618
     16 H           1.9157    3.5093    1.3953 H       1  LIG1        0.0639
     17 H          -2.7743    2.6862    0.0379 H       1  LIG1        0.0624
     18 H          -0.4865   -1.5217   -0.3230 H       1  LIG1        0.0641
     19 H          -2.1946    0.2777   -0.3516 H       1  LIG1        0.0625
     20 HXT         3.8745   -1.6514    0.7445 H       1  LIG1        0.2955
@<TRIPOS>BOND
     1    19    10    1
     2    18     9    1
     3    10     9   ar
     4    10     5   ar
     5     9     8   ar
     6    17     6    1
     7    12    11    2
     8     5     6   ar
     9     5     4   ar
    10     6     1   ar
    11     8    11    1
    12     8     7   ar
    13    11    13    1
    14     1    14    1
    15     1     2   ar
    16     4     7   ar
    17     4     3   ar
    18    20    13    1
    19     3     2   ar
    20     3    16    1
    21     2    15    1
