@<TRIPOS>MOLECULE
3_11F
 71 78 0 0 0
SMALL
GASTEIGER
Energy = 0

@<TRIPOS>ATOM
      1 C          -1.3648    4.1533    0.7203 C.ar    1  LIG1       -0.0608
      2 C          -0.0520    4.3904    1.0980 C.ar    1  LIG1       -0.0560
      3 C           0.9133    3.3596    1.1089 C.ar    1  LIG1       -0.0152
      4 C           0.5234    2.0482    0.7190 C.ar    1  LIG1        0.0758
      5 C          -0.8146    1.8126    0.3286 C.ar    1  LIG1        0.0146
      6 C          -1.7431    2.8768    0.3416 C.ar    1  LIG1       -0.0518
      7 N           1.4123    1.0270    0.7207 N.ar    1  LIG1       -0.2507
      8 C           1.0791   -0.2380    0.3584 C.ar    1  LIG1        0.0489
      9 C          -0.2089   -0.5322   -0.0337 C.ar    1  LIG1       -0.0252
     10 C          -1.1560    0.4933   -0.0450 C.ar    1  LIG1        0.0698
     11 C          -2.5240    0.1411   -0.4961 C.2     1  LIG1        0.3396
     12 O          -3.1718    0.7686   -1.3155 O.2     1  LIG1       -0.2449
     13 O          -2.9278   -0.9744    0.1649 O.3     1  LIG1       -0.4644
     14 C           2.1998   -1.2820    0.4037 C.3     1  LIG1        0.0137
     15 C           1.7508   -2.7225    0.0163 C.3     1  LIG1       -0.0391
     16 C           2.9246   -3.7143    0.0840 C.3     1  LIG1       -0.0397
     17 C           3.4836   -3.7392    1.5138 C.3     1  LIG1       -0.0473
     18 C           3.9708   -2.3378    1.9077 C.3     1  LIG1       -0.0397
     19 C           2.7932   -1.3499    1.8393 C.3     1  LIG1       -0.0391
     20 C          -4.2497   -1.3978   -0.1717 C.3     1  LIG1        0.0820
     21 C           4.0238   -3.2614   -0.8882 C.3     1  LIG1       -0.0473
     22 C           4.5131   -1.8572   -0.5054 C.3     1  LIG1       -0.0397
     23 C           5.0667   -1.8860    0.9286 C.3     1  LIG1       -0.0473
     24 C           3.3353   -0.8691   -0.5743 C.3     1  LIG1       -0.0391
     25 C           2.3718    3.6795    1.5484 C.3     1  LIG1       -0.0014
     26 C           2.7555    2.8586    2.8156 C.3     1  LIG1       -0.0404
     27 C           4.2162    3.1091    3.2282 C.3     1  LIG1       -0.0397
     28 C           5.1456    2.7448    2.0590 C.3     1  LIG1       -0.0473
     29 C           4.8295    3.6211    0.8360 C.3     1  LIG1       -0.0397
     30 C           3.3759    3.3758    0.3963 C.3     1  LIG1       -0.0404
     31 C           4.3950    4.5911    3.5809 C.3     1  LIG1       -0.0473
     32 C           4.0580    5.4564    2.3600 C.3     1  LIG1       -0.0397
     33 C           5.0034    5.0992    1.2063 C.3     1  LIG1       -0.0473
     34 C           2.6049    5.1845    1.9298 C.3     1  LIG1       -0.0404
     35 H          -2.0907    4.9624    0.7196 H       1  LIG1        0.0618
     36 H           0.1921    5.4088    1.3847 H       1  LIG1        0.0621
     37 H          -2.7809    2.7263    0.0513 H       1  LIG1        0.0624
     38 H          -0.5006   -1.5303   -0.3384 H       1  LIG1        0.0644
     39 H           1.3381   -2.7346   -1.0012 H       1  LIG1        0.0277
     40 H           0.9533   -3.0679    0.6878 H       1  LIG1        0.0277
     41 H           2.5773   -4.7159   -0.1934 H       1  LIG1        0.0301
     42 H           4.3106   -4.4567    1.5807 H       1  LIG1        0.0271
     43 H           2.7103   -4.0787    2.2138 H       1  LIG1        0.0271
     44 H           4.3734   -2.3602    2.9267 H       1  LIG1        0.0301
     45 H           3.1489   -0.3640    2.1603 H       1  LIG1        0.0277
     46 H           2.0160   -1.6467    2.5563 H       1  LIG1        0.0277
     47 H          -4.9777   -0.6216    0.0843 H       1  LIG1        0.0661
     48 H          -4.4778   -2.2931    0.4132 H       1  LIG1        0.0661
     49 H          -4.3113   -1.6528   -1.2343 H       1  LIG1        0.0661
     50 H           3.6391   -3.2579   -1.9154 H       1  LIG1        0.0271
     51 H           4.8608   -3.9700   -0.8643 H       1  LIG1        0.0271
     52 H           5.3006   -1.5396   -1.1982 H       1  LIG1        0.0301
     53 H           5.4341   -0.8913    1.2091 H       1  LIG1        0.0271
     54 H           5.9234   -2.5688    0.9853 H       1  LIG1        0.0271
     55 H           3.7074    0.1344   -0.3370 H       1  LIG1        0.0277
     56 H           2.9505   -0.8204   -1.6017 H       1  LIG1        0.0277
     57 H           2.6296    1.7853    2.6599 H       1  LIG1        0.0276
     58 H           2.0857    3.1193    3.6463 H       1  LIG1        0.0276
     59 H           4.4618    2.4922    4.1000 H       1  LIG1        0.0301
     60 H           6.1918    2.8855    2.3573 H       1  LIG1        0.0271
     61 H           5.0279    1.6850    1.8019 H       1  LIG1        0.0271
     62 H           5.5089    3.3662    0.0147 H       1  LIG1        0.0301
     63 H           3.3016    2.3426    0.0514 H       1  LIG1        0.0276
     64 H           3.1418    3.9994   -0.4772 H       1  LIG1        0.0276
     65 H           5.4263    4.7797    3.9033 H       1  LIG1        0.0271
     66 H           3.7447    4.8587    4.4228 H       1  LIG1        0.0271
     67 H           4.1742    6.5155    2.6163 H       1  LIG1        0.0301
     68 H           6.0430    5.2948    1.4967 H       1  LIG1        0.0271
     69 H           4.7916    5.7327    0.3362 H       1  LIG1        0.0271
     70 H           1.9407    5.4767    2.7542 H       1  LIG1        0.0276
     71 H           2.3679    5.8351    1.0773 H       1  LIG1        0.0276
@<TRIPOS>BOND
     1    50    21    1
     2    56    24    1
     3    12    11    2
     4    49    20    1
     5    52    22    1
     6    39    15    1
     7    21    51    1
     8    21    22    1
     9    21    16    1
    10    24    22    1
    11    24    55    1
    12    24    14    1
    13    22    23    1
    14    11    10    1
    15    11    13    1
    16    64    30    1
    17    38     9    1
    18    41    16    1
    19    20    47    1
    20    20    13    1
    21    20    48    1
    22    10     9   ar
    23    10     5   ar
    24     9     8   ar
    25    62    29    1
    26    15    16    1
    27    15    14    1
    28    15    40    1
    29    37     6    1
    30    63    30    1
    31    16    17    1
    32     5     6   ar
    33     5     4   ar
    34    69    33    1
    35     6     1   ar
    36     8    14    1
    37     8     7   ar
    38    30    29    1
    39    30    25    1
    40    14    19    1
    41     4     7   ar
    42     4     3   ar
    43    35     1    1
    44     1     2   ar
    45    29    33    1
    46    29    28    1
    47    23    54    1
    48    23    53    1
    49    23    18    1
    50    71    34    1
    51     2     3   ar
    52     2    36    1
    53     3    25    1
    54    33    68    1
    55    33    32    1
    56    17    42    1
    57    17    18    1
    58    17    43    1
    59    25    34    1
    60    25    26    1
    61    61    28    1
    62    19    18    1
    63    19    45    1
    64    19    46    1
    65    18    44    1
    66    34    32    1
    67    34    70    1
    68    28    60    1
    69    28    27    1
    70    32    67    1
    71    32    31    1
    72    57    26    1
    73    26    27    1
    74    26    58    1
    75    27    31    1
    76    27    59    1
    77    31    65    1
    78    31    66    1
