@<TRIPOS>MOLECULE
3_12B
 36 38 0 0 0
SMALL
GASTEIGER

@<TRIPOS>ATOM
      1 C          -1.3399    4.1687    0.7437 C.ar    1  LIG11      -0.0611
      2 C          -0.0182    4.3766    1.1056 C.ar    1  LIG11      -0.0597
      3 C           0.8788    3.3075    1.0802 C.ar    1  LIG11      -0.0357
      4 C           0.4928    2.0301    0.6972 C.ar    1  LIG11       0.0721
      5 C          -0.8418    1.8051    0.3098 C.ar    1  LIG11       0.0144
      6 C          -1.7513    2.8953    0.3524 C.ar    1  LIG11      -0.0518
      7 N           1.4230    1.0612    0.7260 N.ar    1  LIG11      -0.2513
      8 C           1.0921   -0.2030    0.3868 C.ar    1  LIG11       0.0458
      9 C          -0.1911   -0.5302   -0.0142 C.ar    1  LIG11      -0.0255
     10 C          -1.1557    0.4796   -0.0704 C.ar    1  LIG11       0.0697
     11 C          -2.4930    0.0485   -0.5255 C.2     1  LIG11       0.3375
     12 O          -3.0363   -0.9986   -0.2260 O.2     1  LIG11      -0.2451
     13 O          -3.0335    0.8890   -1.4225 O.3     1  LIG11      -0.4771
     14 C           2.1708   -1.2735    0.4493 C.3     1  LIG11       0.0014
     15 C           2.7102   -1.4819    1.8753 C.3     1  LIG11      -0.0448
     16 C           3.7578   -0.4562    2.3065 C.3     1  LIG11      -0.0525
     17 C           4.8777   -0.3238    1.2815 C.3     1  LIG11      -0.0530
     18 C           4.3390   -0.0015   -0.1071 C.3     1  LIG11      -0.0525
     19 C           3.3006   -1.0247   -0.5651 C.3     1  LIG11      -0.0448
     20 H          -2.0509    4.9906    0.7652 H       1  LIG11       0.0618
     21 H           0.3200    5.3626    1.4129 H       1  LIG11       0.0618
     22 H           1.9131    3.4744    1.3740 H       1  LIG11       0.0639
     23 H          -2.7959    2.7609    0.0824 H       1  LIG11       0.0624
     24 H          -0.4468   -1.5499   -0.2880 H       1  LIG11       0.0644
     25 H          -3.8664    0.4487   -1.6935 H       1  LIG11       0.2954
     26 H           1.6940   -2.2201    0.1577 H       1  LIG11       0.0364
     27 H           3.1771   -2.4751    1.9203 H       1  LIG11       0.0272
     28 H           1.8885   -1.4944    2.6020 H       1  LIG11       0.0272
     29 H           3.2889    0.5203    2.4687 H       1  LIG11       0.0265
     30 H           4.1825   -0.7574    3.2713 H       1  LIG11       0.0265
     31 H           5.5750    0.4604    1.5972 H       1  LIG11       0.0265
     32 H           5.4486   -1.2598    1.2426 H       1  LIG11       0.0265
     33 H           3.9071    1.0053   -0.1111 H       1  LIG11       0.0265
     34 H           5.1688    0.0166   -0.8233 H       1  LIG11       0.0265
     35 H           2.8896   -0.7207   -1.5357 H       1  LIG11       0.0272
     36 H           3.8214   -1.9768   -0.7348 H       1  LIG11       0.0272
@<TRIPOS>BOND
     1    25    13    1
     2    35    19    1
     3    13    11    1
     4    34    18    1
     5    36    19    1
     6    19    18    1
     7    19    14    1
     8    11    12    2
     9    11    10    1
    10    24     9    1
    11    33    18    1
    12    18    17    1
    13    10     9   ar
    14    10     5   ar
    15     9     8   ar
    16    23     6    1
    17    26    14    1
    18     5     6   ar
    19     5     4   ar
    20     6     1   ar
    21     8    14    1
    22     8     7   ar
    23    14    15    1
    24     4     7   ar
    25     4     3   ar
    26     1    20    1
    27     1     2   ar
    28     3     2   ar
    29     3    22    1
    30     2    21    1
    31    32    17    1
    32    17    31    1
    33    17    16    1
    34    15    27    1
    35    15    16    1
    36    15    28    1
    37    16    29    1
    38    16    30    1
