@<TRIPOS>MOLECULE
3_12C
 44 48 0 0 0
SMALL
GASTEIGER

@<TRIPOS>ATOM
      1 C          -1.3324    4.1757    0.7243 C.ar    1  LIG11      -0.0611
      2 C          -0.0156    4.3776    1.1042 C.ar    1  LIG11      -0.0597
      3 C           0.8747    3.3034    1.0921 C.ar    1  LIG11      -0.0357
      4 C           0.4854    2.0260    0.7119 C.ar    1  LIG11       0.0721
      5 C          -0.8504    1.7987    0.3293 C.ar    1  LIG11       0.0144
      6 C          -1.7474    2.9013    0.3387 C.ar    1  LIG11      -0.0518
      7 N           1.4208    1.0627    0.7269 N.ar    1  LIG11      -0.2510
      8 C           1.1061   -0.1999    0.3627 C.ar    1  LIG11       0.0489
      9 C          -0.1840   -0.5254   -0.0266 C.ar    1  LIG11      -0.0253
     10 C          -1.1685    0.4709   -0.0466 C.ar    1  LIG11       0.0697
     11 C          -2.5463    0.0803   -0.4474 C.2     1  LIG11       0.3375
     12 O          -3.5932    0.6000   -0.1145 O.2     1  LIG11      -0.2451
     13 O          -2.5443   -0.9728   -1.2883 O.3     1  LIG11      -0.4771
     14 C           2.2174   -1.2518    0.4009 C.3     1  LIG11       0.0137
     15 C           3.5773   -0.6385    0.8547 C.3     1  LIG11      -0.0391
     16 C           4.6854   -1.7043    0.8900 C.3     1  LIG11      -0.0397
     17 C           4.8547   -2.3037   -0.5138 C.3     1  LIG11      -0.0473
     18 C           3.5365   -2.9455   -0.9709 C.3     1  LIG11      -0.0397
     19 C           2.4328   -1.8736   -1.0070 C.3     1  LIG11      -0.0391
     20 C           3.1377   -4.0501    0.0217 C.3     1  LIG11      -0.0473
     21 C           2.9659   -3.4583    1.4305 C.3     1  LIG11      -0.0397
     22 C           4.2873   -2.8138    1.8747 C.3     1  LIG11      -0.0473
     23 C           1.8609   -2.3875    1.3997 C.3     1  LIG11      -0.0391
     24 H          -2.0385    5.0022    0.7264 H       1  LIG11       0.0618
     25 H           0.3250    5.3637    1.4080 H       1  LIG11       0.0618
     26 H           1.9088    3.4680    1.3880 H       1  LIG11       0.0639
     27 H          -2.7873    2.7815    0.0433 H       1  LIG11       0.0624
     28 H          -0.4308   -1.5446   -0.3065 H       1  LIG11       0.0644
     29 H          -3.4939   -1.1140   -1.4883 H       1  LIG11       0.2954
     30 H           3.4801   -0.1885    1.8520 H       1  LIG11       0.0277
     31 H           3.8775    0.1703    0.1746 H       1  LIG11       0.0277
     32 H           5.6275   -1.2464    1.2116 H       1  LIG11       0.0301
     33 H           5.6547   -3.0542   -0.5071 H       1  LIG11       0.0271
     34 H           5.1572   -1.5225   -1.2219 H       1  LIG11       0.0271
     35 H           3.6637   -3.3762   -1.9705 H       1  LIG11       0.0301
     36 H           1.5085   -2.3331   -1.3793 H       1  LIG11       0.0277
     37 H           2.6996   -1.0906   -1.7295 H       1  LIG11       0.0277
     38 H           3.9051   -4.8338    0.0366 H       1  LIG11       0.0271
     39 H           2.2037   -4.5258   -0.3018 H       1  LIG11       0.0271
     40 H           2.6890   -4.2525    2.1329 H       1  LIG11       0.0301
     41 H           4.1819   -2.3995    2.8849 H       1  LIG11       0.0271
     42 H           5.0774   -3.5732    1.9231 H       1  LIG11       0.0271
     43 H           1.7169   -1.9742    2.4070 H       1  LIG11       0.0277
     44 H           0.9127   -2.8674    1.1261 H       1  LIG11       0.0277
@<TRIPOS>BOND
     1    35    18    1
     2    37    19    1
     3    29    13    1
     4    36    19    1
     5    13    11    1
     6    34    17    1
     7    19    18    1
     8    19    14    1
     9    18    17    1
    10    18    20    1
    11    17    33    1
    12    17    16    1
    13    11    12    2
    14    11    10    1
    15    28     9    1
    16    39    20    1
    17    10     9   ar
    18    10     5   ar
    19     9     8   ar
    20    20    38    1
    21    20    21    1
    22    27     6    1
    23    31    15    1
    24     5     6   ar
    25     5     4   ar
    26     6     1   ar
    27     8    14    1
    28     8     7   ar
    29    14    15    1
    30    14    23    1
    31     4     7   ar
    32     4     3   ar
    33     1    24    1
    34     1     2   ar
    35    15    16    1
    36    15    30    1
    37    16    32    1
    38    16    22    1
    39     3     2   ar
    40     3    26    1
    41     2    25    1
    42    44    23    1
    43    23    21    1
    44    23    43    1
    45    21    22    1
    46    21    40    1
    47    22    42    1
    48    22    41    1
