@<TRIPOS>MOLECULE
3_14B
 52 55 0 0 0
SMALL
GASTEIGER

@<TRIPOS>ATOM
      1 C          -1.3481    4.1559    0.7148 C.ar    1  LIG11      -0.0608
      2 C          -0.0329    4.3850    1.0897 C.ar    1  LIG11      -0.0563
      3 C           0.8990    3.3322    1.1170 C.ar    1  LIG11      -0.0183
      4 C           0.5139    2.0377    0.7228 C.ar    1  LIG11       0.0750
      5 C          -0.8275    1.7988    0.3335 C.ar    1  LIG11       0.0044
      6 C          -1.7435    2.8749    0.3463 C.ar    1  LIG11      -0.0523
      7 N           1.4316    1.0525    0.7169 N.ar    1  LIG11      -0.2510
      8 C           1.0822   -0.2039    0.3649 C.ar    1  LIG11       0.0453
      9 C          -0.2056   -0.5229   -0.0300 C.ar    1  LIG11      -0.0358
     10 C          -1.1804    0.4809   -0.0588 C.ar    1  LIG11      -0.0259
     11 C          -2.5805    0.1031   -0.4964 C.3     1  LIG11       0.0707
     12 C          -3.5487   -0.0768    0.6529 C.2     1  LIG11       0.3112
     13 O          -3.2564   -0.4266    1.7877 O.2     1  LIG11      -0.2505
     14 O          -4.8212    0.1636    0.2180 O.3     1  LIG11      -0.4677
     15 C           2.1657   -1.2600    0.3800 C.3     1  LIG11       0.0014
     16 C           3.1726   -1.0481   -0.7666 C.3     1  LIG11      -0.0448
     17 C           4.5520   -1.1469   -0.1271 C.3     1  LIG11      -0.0524
     18 C           4.3341   -0.6244    1.2814 C.3     1  LIG11      -0.0524
     19 C           3.0005   -1.2449    1.6739 C.3     1  LIG11      -0.0448
     20 C           2.3451    3.5952    1.5206 C.3     1  LIG11      -0.0138
     21 C           3.1723    4.0995    0.3230 C.3     1  LIG11      -0.0461
     22 C           4.1203    5.1383    0.9033 C.3     1  LIG11      -0.0525
     23 C          -5.8187   -0.0007    1.2273 C.3     1  LIG11       0.0817
     24 C           3.2852    5.8038    1.9829 C.3     1  LIG11      -0.0525
     25 C           2.5665    4.6338    2.6426 C.3     1  LIG11      -0.0461
     26 H          -2.0641    4.9736    0.7066 H       1  LIG11       0.0618
     27 H           0.2626    5.3961    1.3574 H       1  LIG11       0.0621
     28 H          -2.7827    2.7353    0.0621 H       1  LIG11       0.0624
     29 H          -0.4508   -1.5428   -0.3112 H       1  LIG11       0.0639
     30 H          -2.5639   -0.8387   -1.0587 H       1  LIG11       0.0426
     31 H          -2.9577    0.8633   -1.1902 H       1  LIG11       0.0426
     32 H           1.7019   -2.2504    0.2861 H       1  LIG11       0.0364
     33 H           3.0567   -0.0647   -1.2388 H       1  LIG11       0.0272
     34 H           3.0475   -1.7986   -1.5546 H       1  LIG11       0.0272
     35 H           5.3045   -0.5717   -0.6741 H       1  LIG11       0.0265
     36 H           4.8781   -2.1933   -0.0968 H       1  LIG11       0.0265
     37 H           4.2624    0.4693    1.2768 H       1  LIG11       0.0265
     38 H           5.1409   -0.9125    1.9612 H       1  LIG11       0.0265
     39 H           2.5283   -0.7160    2.5081 H       1  LIG11       0.0272
     40 H           3.1735   -2.2786    2.0002 H       1  LIG11       0.0272
     41 H           2.7884    2.6627    1.8934 H       1  LIG11       0.0349
     42 H           2.5372    4.5721   -0.4370 H       1  LIG11       0.0271
     43 H           3.7141    3.2844   -0.1685 H       1  LIG11       0.0271
     44 H           4.4699    5.8488    0.1489 H       1  LIG11       0.0265
     45 H           4.9954    4.6479    1.3458 H       1  LIG11       0.0265
     46 H          -5.8342   -1.0347    1.5856 H       1  LIG11       0.0661
     47 H          -6.7913    0.2259    0.7818 H       1  LIG11       0.0661
     48 H          -5.6462    0.6953    2.0542 H       1  LIG11       0.0661
     49 H           2.5601    6.4917    1.5331 H       1  LIG11       0.0265
     50 H           3.8965    6.3677    2.6932 H       1  LIG11       0.0265
     51 H           1.6591    4.9452    3.1681 H       1  LIG11       0.0271
     52 H           3.2311    4.1979    3.4004 H       1  LIG11       0.0271
@<TRIPOS>BOND
     1    34    16    1
     2    33    16    1
     3    31    11    1
     4    30    11    1
     5    16    17    1
     6    16    15    1
     7    35    17    1
     8    11    10    1
     9    11    12    1
    10    42    21    1
    11    29     9    1
    12    43    21    1
    13    17    36    1
    14    17    18    1
    15    10     9   ar
    16    10     5   ar
    17     9     8   ar
    18    28     6    1
    19    44    22    1
    20    14    12    1
    21    14    23    1
    22    32    15    1
    23    21    22    1
    24    21    20    1
    25     5     6   ar
    26     5     4   ar
    27     6     1   ar
    28     8    15    1
    29     8     7   ar
    30    15    19    1
    31    12    13    2
    32    26     1    1
    33     1     2   ar
    34     7     4   ar
    35     4     3   ar
    36    47    23    1
    37    22    45    1
    38    22    24    1
    39     2     3   ar
    40     2    27    1
    41     3    20    1
    42    23    46    1
    43    23    48    1
    44    37    18    1
    45    18    19    1
    46    18    38    1
    47    20    41    1
    48    20    25    1
    49    49    24    1
    50    19    40    1
    51    19    39    1
    52    24    25    1
    53    24    50    1
    54    25    51    1
    55    25    52    1
