@<TRIPOS>MOLECULE
3_14F
 42 44 0 0 0
SMALL
GASTEIGER
Energy = 0

@<TRIPOS>ATOM
      1 C          -1.3382    4.1614    0.7300 C.ar    1  LIG1       -0.0611
      2 C          -0.0203    4.3749    1.1045 C.ar    1  LIG1       -0.0597
      3 C           0.8813    3.3097    1.0897 C.ar    1  LIG1       -0.0357
      4 C           0.5020    2.0299    0.7088 C.ar    1  LIG1        0.0716
      5 C          -0.8371    1.7979    0.3216 C.ar    1  LIG1        0.0041
      6 C          -1.7453    2.8850    0.3418 C.ar    1  LIG1       -0.0523
      7 N           1.4357    1.0663    0.7297 N.ar    1  LIG1       -0.2513
      8 C           1.0914   -0.1917    0.3725 C.ar    1  LIG1        0.0453
      9 C          -0.1991   -0.5202   -0.0192 C.ar    1  LIG1       -0.0358
     10 C          -1.1817    0.4775   -0.0624 C.ar    1  LIG1       -0.0259
     11 C          -2.5803    0.0913   -0.4883 C.3     1  LIG1        0.0707
     12 C          -3.5164   -0.1189    0.6803 C.2     1  LIG1        0.3115
     13 O          -3.2747   -0.8154    1.6572 O.2     1  LIG1       -0.2505
     14 O          -4.6854    0.5528    0.4714 O.3     1  LIG1       -0.4647
     15 C           2.1603   -1.2606    0.4491 C.3     1  LIG1        0.0014
     16 C           2.5117   -1.6038    1.9089 C.3     1  LIG1       -0.0448
     17 C           4.0336   -1.6151    1.9715 C.3     1  LIG1       -0.0524
     18 C           4.4411   -0.5726    0.9458 C.3     1  LIG1       -0.0524
     19 C           3.4858   -0.8361   -0.2099 C.3     1  LIG1       -0.0448
     20 H          -2.0498    4.9830    0.7398 H       1  LIG1        0.0618
     21 H           0.3122    5.3632    1.4103 H       1  LIG1        0.0618
     22 H           1.9136    3.4810    1.3870 H       1  LIG1        0.0639
     23 C          -5.6391    0.4125    1.5317 C.3     1  LIG1        0.0897
     24 H          -2.7857    2.7539    0.0566 H       1  LIG1        0.0624
     25 H          -0.4428   -1.5464   -0.2795 H       1  LIG1        0.0639
     26 C          -6.8633    1.2339    1.1776 C.3     1  LIG1       -0.0306
     27 H          -2.5687   -0.8400   -1.0682 H       1  LIG1        0.0426
     28 H          -2.9798    0.8496   -1.1718 H       1  LIG1        0.0426
     29 H           1.8018   -2.1624   -0.0640 H       1  LIG1        0.0364
     30 H           2.0949   -2.5722    2.2059 H       1  LIG1        0.0272
     31 H           2.1214   -0.8570    2.6114 H       1  LIG1        0.0272
     32 H           4.4150   -2.6015    1.6818 H       1  LIG1        0.0265
     33 H           4.4091   -1.3852    2.9727 H       1  LIG1        0.0265
     34 H           5.4889   -0.6697    0.6477 H       1  LIG1        0.0265
     35 H           4.2891    0.4367    1.3454 H       1  LIG1        0.0265
     36 H           3.8732   -1.6729   -0.8056 H       1  LIG1        0.0272
     37 H           3.4003    0.0258   -0.8794 H       1  LIG1        0.0272
     38 H          -5.2071    0.7787    2.4698 H       1  LIG1        0.0694
     39 H          -5.9186   -0.6415    1.6392 H       1  LIG1        0.0694
     40 H          -7.6236    1.1585    1.9600 H       1  LIG1        0.0262
     41 H          -7.2951    0.8936    0.2306 H       1  LIG1        0.0262
     42 H          -6.5953    2.2873    1.0450 H       1  LIG1        0.0262
@<TRIPOS>BOND
     1    28    11    1
     2    27    11    1
     3    37    19    1
     4    36    19    1
     5    11    10    1
     6    11    12    1
     7    25     9    1
     8    19    15    1
     9    19    18    1
    10    29    15    1
    11    10     9   ar
    12    10     5   ar
    13     9     8   ar
    14    24     6    1
    15    41    26    1
    16     5     6   ar
    17     5     4   ar
    18     6     1   ar
    19     8    15    1
    20     8     7   ar
    21    15    16    1
    22    14    12    1
    23    14    23    1
    24    34    18    1
    25    12    13    2
    26     4     7   ar
    27     4     3   ar
    28     1    20    1
    29     1     2   ar
    30    18    35    1
    31    18    17    1
    32    42    26    1
    33     3     2   ar
    34     3    22    1
    35     2    21    1
    36    26    23    1
    37    26    40    1
    38    23    39    1
    39    23    38    1
    40    32    17    1
    41    16    17    1
    42    16    30    1
    43    16    31    1
    44    17    33    1
