@<TRIPOS>MOLECULE
3_14J
 53 57 0 0 0
SMALL
GASTEIGER

@<TRIPOS>ATOM
      1 C          -1.3385    4.1640    0.7335 C.ar    1  LIG11      -0.0611
      2 C          -0.0197    4.3759    1.1047 C.ar    1  LIG11      -0.0597
      3 C           0.8799    3.3092    1.0866 C.ar    1  LIG11      -0.0357
      4 C           0.4976    2.0302    0.7056 C.ar    1  LIG11       0.0716
      5 C          -0.8396    1.8002    0.3204 C.ar    1  LIG11       0.0041
      6 C          -1.7469    2.8883    0.3445 C.ar    1  LIG11      -0.0523
      7 N           1.4291    1.0643    0.7266 N.ar    1  LIG11      -0.2510
      8 C           1.0998   -0.2035    0.3783 C.ar    1  LIG11       0.0484
      9 C          -0.1938   -0.5186   -0.0185 C.ar    1  LIG11      -0.0355
     10 C          -1.1792    0.4810   -0.0648 C.ar    1  LIG11      -0.0259
     11 C          -2.5745    0.0827   -0.4877 C.3     1  LIG11       0.0707
     12 C          -3.4480   -0.2973    0.6838 C.2     1  LIG11       0.3115
     13 O          -3.3488   -1.3470    1.3066 O.2     1  LIG11      -0.2505
     14 O          -4.3479    0.6906    0.9508 O.3     1  LIG11      -0.4647
     15 C           2.2295   -1.2323    0.4588 C.3     1  LIG11       0.0137
     16 C           3.3938   -0.7919   -0.4740 C.3     1  LIG11      -0.0391
     17 C           4.5863   -1.7579   -0.3630 C.3     1  LIG11      -0.0397
     18 C           5.0846   -1.7821    1.0912 C.3     1  LIG11      -0.0473
     19 C           3.9608   -2.2578    2.0263 C.3     1  LIG11      -0.0397
     20 C           2.7678   -1.2920    1.9170 C.3     1  LIG11      -0.0391
     21 C           4.1376   -3.1692   -0.7694 C.3     1  LIG11      -0.0473
     22 C           3.0103   -3.6465    0.1580 C.3     1  LIG11      -0.0397
     23 C          -5.1862    0.4305    2.0830 C.3     1  LIG11       0.0897
     24 C           3.5152   -3.6667    1.6083 C.3     1  LIG11      -0.0473
     25 C           1.8207   -2.6771    0.0496 C.3     1  LIG11      -0.0391
     26 H          -2.0498    4.9857    0.7460 H       1  LIG11       0.0618
     27 H           0.3148    5.3634    1.4104 H       1  LIG11       0.0618
     28 H           1.9131    3.4785    1.3817 H       1  LIG11       0.0639
     29 H          -2.7883    2.7585    0.0632 H       1  LIG11       0.0624
     30 H          -0.4637   -1.5349   -0.2873 H       1  LIG11       0.0639
     31 H          -2.5397   -0.7811   -1.1644 H       1  LIG11       0.0426
     32 H          -3.0508    0.8686   -1.0844 H       1  LIG11       0.0426
     33 H           3.7348    0.2209   -0.2214 H       1  LIG11       0.0277
     34 H           3.0472   -0.7485   -1.5153 H       1  LIG11       0.0277
     35 H           5.3938   -1.4232   -1.0240 H       1  LIG11       0.0301
     36 H           5.4221   -0.7817    1.3889 H       1  LIG11       0.0271
     37 H           5.9512   -2.4490    1.1786 H       1  LIG11       0.0271
     38 H           4.3246   -2.2777    3.0598 H       1  LIG11       0.0301
     39 H           3.0858   -0.2974    2.2567 H       1  LIG11       0.0277
     40 H           1.9695   -1.6096    2.6011 H       1  LIG11       0.0277
     41 H           4.9860   -3.8625   -0.7159 H       1  LIG11       0.0271
     42 H           3.7926   -3.1682   -1.8106 H       1  LIG11       0.0271
     43 H           2.6931   -4.6535   -0.1357 H       1  LIG11       0.0301
     44 H          -4.5689    0.2711    2.9743 H       1  LIG11       0.0694
     45 H          -5.7970   -0.4588    1.8918 H       1  LIG11       0.0694
     46 C          -6.0831    1.6349    2.2920 C.3     1  LIG11      -0.0306
     47 H           4.3525   -4.3688    1.7042 H       1  LIG11       0.0271
     48 H           2.7225   -4.0236    2.2772 H       1  LIG11       0.0271
     49 H           1.4437   -2.6907   -0.9817 H       1  LIG11       0.0277
     50 H           1.0070   -3.0410    0.6910 H       1  LIG11       0.0277
     51 H          -6.6932    1.8205    1.4018 H       1  LIG11       0.0262
     52 H          -5.4844    2.5361    2.4611 H       1  LIG11       0.0262
     53 H          -6.7452    1.4844    3.1491 H       1  LIG11       0.0262
@<TRIPOS>BOND
     1    42    21    1
     2    34    16    1
     3    31    11    1
     4    32    11    1
     5    35    17    1
     6    49    25    1
     7    21    41    1
     8    21    17    1
     9    21    22    1
    10    11    10    1
    11    11    12    1
    12    16    17    1
    13    16    33    1
    14    16    15    1
    15    17    18    1
    16    30     9    1
    17    43    22    1
    18    10     9   ar
    19    10     5   ar
    20     9     8   ar
    21    25    22    1
    22    25    15    1
    23    25    50    1
    24    29     6    1
    25    22    24    1
    26     5     6   ar
    27     5     4   ar
    28     6     1   ar
    29     8    15    1
    30     8     7   ar
    31    15    20    1
    32    12    14    1
    33    12    13    2
    34     4     7   ar
    35     4     3   ar
    36     1    26    1
    37     1     2   ar
    38    14    23    1
    39     3     2   ar
    40     3    28    1
    41    18    37    1
    42    18    36    1
    43    18    19    1
    44     2    27    1
    45    51    46    1
    46    24    47    1
    47    24    19    1
    48    24    48    1
    49    45    23    1
    50    20    19    1
    51    20    39    1
    52    20    40    1
    53    19    38    1
    54    23    46    1
    55    23    44    1
    56    46    52    1
    57    46    53    1
