@<TRIPOS>MOLECULE
3_14C
 42 44 0 0 0
SMALL
GASTEIGER

@<TRIPOS>ATOM
      1 C          -1.3359    4.1640    0.7200 C.ar    1  LIG11      -0.0611
      2 C          -0.0197    4.3757    1.1011 C.ar    1  LIG11      -0.0597
      3 C           0.8797    3.3084    1.0942 C.ar    1  LIG11      -0.0357
      4 C           0.4999    2.0279    0.7159 C.ar    1  LIG11       0.0716
      5 C          -0.8394    1.7965    0.3293 C.ar    1  LIG11       0.0041
      6 C          -1.7443    2.8865    0.3370 C.ar    1  LIG11      -0.0523
      7 N           1.4339    1.0638    0.7369 N.ar    1  LIG11      -0.2513
      8 C           1.0967   -0.1898    0.3594 C.ar    1  LIG11       0.0453
      9 C          -0.1955   -0.5161   -0.0332 C.ar    1  LIG11      -0.0358
     10 C          -1.1869    0.4740   -0.0436 C.ar    1  LIG11      -0.0259
     11 C          -2.5852    0.0879   -0.4764 C.3     1  LIG11       0.0707
     12 C          -2.9081    0.4687   -1.9052 C.2     1  LIG11       0.3112
     13 O          -2.0974    0.6241   -2.8074 O.2     1  LIG11      -0.2505
     14 O          -4.2626    0.5684   -2.0529 O.3     1  LIG11      -0.4677
     15 C           2.2104   -1.2181    0.3873 C.3     1  LIG11       0.0014
     16 C           2.5136   -1.7767   -1.0127 C.3     1  LIG11      -0.0448
     17 C           3.6482   -2.7989   -0.9719 C.3     1  LIG11      -0.0525
     18 C           3.3631   -3.9175    0.0263 C.3     1  LIG11      -0.0530
     19 C           3.0633   -3.3683    1.4181 C.3     1  LIG11      -0.0525
     20 C           1.9256   -2.3491    1.3891 C.3     1  LIG11      -0.0448
     21 H          -2.0440    4.9885    0.7176 H       1  LIG11       0.0618
     22 H           0.3146    5.3652    1.4008 H       1  LIG11       0.0618
     23 C          -4.6776    0.9049   -3.3778 C.3     1  LIG11       0.0817
     24 H           1.9121    3.4800    1.3905 H       1  LIG11       0.0639
     25 H          -2.7814    2.7576    0.0403 H       1  LIG11       0.0624
     26 H          -0.4311   -1.5322   -0.3355 H       1  LIG11       0.0639
     27 H          -3.3112    0.5469    0.2047 H       1  LIG11       0.0426
     28 H          -2.7245   -0.9965   -0.3871 H       1  LIG11       0.0426
     29 H           3.1184   -0.7020    0.7326 H       1  LIG11       0.0364
     30 H           2.7848   -0.9601   -1.6933 H       1  LIG11       0.0272
     31 H           1.6225   -2.2549   -1.4389 H       1  LIG11       0.0272
     32 H           3.7957   -3.2251   -1.9706 H       1  LIG11       0.0265
     33 H           4.5835   -2.2950   -0.6985 H       1  LIG11       0.0265
     34 H           2.5087   -4.5096   -0.3239 H       1  LIG11       0.0265
     35 H           4.2228   -4.5952    0.0752 H       1  LIG11       0.0265
     36 H           2.8018   -4.1927    2.0910 H       1  LIG11       0.0265
     37 H           3.9654   -2.8965    1.8268 H       1  LIG11       0.0265
     38 H           0.9934   -2.8676    1.1313 H       1  LIG11       0.0272
     39 H           1.7838   -1.9344    2.3949 H       1  LIG11       0.0272
     40 H          -5.7691    0.9695   -3.3844 H       1  LIG11       0.0661
     41 H          -4.3725    0.1263   -4.0840 H       1  LIG11       0.0661
     42 H          -4.2713    1.8778   -3.6716 H       1  LIG11       0.0661
@<TRIPOS>BOND
     1    41    23    1
     2    42    23    1
     3    40    23    1
     4    23    14    1
     5    13    12    2
     6    14    12    1
     7    32    17    1
     8    12    11    1
     9    30    16    1
    10    31    16    1
    11    16    17    1
    12    16    15    1
    13    17    33    1
    14    17    18    1
    15    11    28    1
    16    11    10    1
    17    11    27    1
    18    26     9    1
    19    34    18    1
    20    10     9   ar
    21    10     5   ar
    22     9     8   ar
    23    18    35    1
    24    18    19    1
    25    25     6    1
    26     5     6   ar
    27     5     4   ar
    28     6     1   ar
    29     8    15    1
    30     8     7   ar
    31    15    29    1
    32    15    20    1
    33     4     7   ar
    34     4     3   ar
    35    21     1    1
    36     1     2   ar
    37     3     2   ar
    38     3    24    1
    39     2    22    1
    40    38    20    1
    41    20    19    1
    42    20    39    1
    43    19    37    1
    44    19    36    1
