@<TRIPOS>MOLECULE
3_14E
 50 54 0 0 0
SMALL
GASTEIGER

@<TRIPOS>ATOM
      1 C          -1.3386    4.1627    0.7316 C.ar    1  LIG11      -0.0611
      2 C          -0.0201    4.3749    1.1042 C.ar    1  LIG11      -0.0597
      3 C           0.8803    3.3086    1.0879 C.ar    1  LIG11      -0.0357
      4 C           0.4993    2.0291    0.7075 C.ar    1  LIG11       0.0716
      5 C          -0.8388    1.7994    0.3216 C.ar    1  LIG11       0.0041
      6 C          -1.7469    2.8868    0.3433 C.ar    1  LIG11      -0.0523
      7 N           1.4326    1.0643    0.7262 N.ar    1  LIG11      -0.2510
      8 C           1.0989   -0.1991    0.3781 C.ar    1  LIG11       0.0484
      9 C          -0.1967   -0.5164   -0.0195 C.ar    1  LIG11      -0.0355
     10 C          -1.1814    0.4808   -0.0639 C.ar    1  LIG11      -0.0259
     11 C          -2.5782    0.0944   -0.5009 C.3     1  LIG11       0.0707
     12 C          -3.5420   -0.1028    0.6492 C.2     1  LIG11       0.3112
     13 O          -3.2419   -0.4367    1.7867 O.2     1  LIG11      -0.2505
     14 O          -4.8199    0.1017    0.2117 O.3     1  LIG11      -0.4677
     15 C           2.1944   -1.2667    0.4415 C.3     1  LIG11       0.0137
     16 C           2.4138   -1.9119   -0.9551 C.3     1  LIG11      -0.0391
     17 C           3.5010   -2.9995   -0.8930 C.3     1  LIG11      -0.0397
     18 C           4.8243   -2.3706   -0.4326 C.3     1  LIG11      -0.0473
     19 C           4.6508   -1.7484    0.9608 C.3     1  LIG11      -0.0397
     20 C           3.5591   -0.6671    0.8994 C.3     1  LIG11      -0.0391
     21 C           3.0766   -4.0835    0.1117 C.3     1  LIG11      -0.0473
     22 C           2.9004   -3.4687    1.5101 C.3     1  LIG11      -0.0397
     23 C          -5.8139   -0.0813    1.2214 C.3     1  LIG11       0.0817
     24 C           4.2271   -2.8374    1.9575 C.3     1  LIG11      -0.0473
     25 C           1.8118   -2.3823    1.4533 C.3     1  LIG11      -0.0391
     26 H          -2.0498    4.9846    0.7441 H       1  LIG11       0.0618
     27 H           0.3137    5.3624    1.4107 H       1  LIG11       0.0618
     28 H           1.9130    3.4785    1.3845 H       1  LIG11       0.0639
     29 H          -2.7878    2.7550    0.0615 H       1  LIG11       0.0624
     30 H          -0.4486   -1.5379   -0.2889 H       1  LIG11       0.0639
     31 H          -2.5535   -0.8421   -1.0717 H       1  LIG11       0.0426
     32 H          -2.9645    0.8584   -1.1855 H       1  LIG11       0.0426
     33 H           2.6990   -1.1436   -1.6862 H       1  LIG11       0.0277
     34 H           1.4865   -2.3633   -1.3299 H       1  LIG11       0.0277
     35 H           3.6311   -3.4466   -1.8849 H       1  LIG11       0.0301
     36 H           5.1450   -1.6042   -1.1489 H       1  LIG11       0.0271
     37 H           5.6129   -3.1326   -0.4074 H       1  LIG11       0.0271
     38 H           5.5966   -1.2998    1.2847 H       1  LIG11       0.0301
     39 H           3.8777    0.1272    0.2107 H       1  LIG11       0.0277
     40 H           3.4592   -0.2013    1.8892 H       1  LIG11       0.0277
     41 H           3.8321   -4.8781    0.1453 H       1  LIG11       0.0271
     42 H           2.1387   -4.5500   -0.2138 H       1  LIG11       0.0271
     43 H           2.6052   -4.2483    2.2212 H       1  LIG11       0.0301
     44 H          -5.6602    0.6247    2.0435 H       1  LIG11       0.0661
     45 H          -5.8028   -1.1129    1.5870 H       1  LIG11       0.0661
     46 H          -6.7916    0.1167    0.7735 H       1  LIG11       0.0661
     47 H           5.0053   -3.6076    2.0245 H       1  LIG11       0.0271
     48 H           4.1185   -2.4068    2.9606 H       1  LIG11       0.0271
     49 H           0.8591   -2.8523    1.1779 H       1  LIG11       0.0277
     50 H           1.6647   -1.9521    2.4531 H       1  LIG11       0.0277
@<TRIPOS>BOND
     1    35    17    1
     2    33    16    1
     3    34    16    1
     4    32    11    1
     5    36    18    1
     6    31    11    1
     7    16    17    1
     8    16    15    1
     9    17    18    1
    10    17    21    1
    11    11    10    1
    12    11    12    1
    13    18    37    1
    14    18    19    1
    15    30     9    1
    16    42    21    1
    17    10     9   ar
    18    10     5   ar
    19     9     8   ar
    20    29     6    1
    21    21    41    1
    22    21    22    1
    23    39    20    1
    24    14    12    1
    25    14    23    1
    26     5     6   ar
    27     5     4   ar
    28     6     1   ar
    29     8    15    1
    30     8     7   ar
    31    15    20    1
    32    15    25    1
    33    12    13    2
    34     4     7   ar
    35     4     3   ar
    36     1    26    1
    37     1     2   ar
    38    46    23    1
    39    20    19    1
    40    20    40    1
    41    19    38    1
    42    19    24    1
    43     3     2   ar
    44     3    28    1
    45     2    27    1
    46    49    25    1
    47    23    45    1
    48    23    44    1
    49    25    22    1
    50    25    50    1
    51    22    24    1
    52    22    43    1
    53    24    47    1
    54    24    48    1
