@<TRIPOS>MOLECULE
3_14H
 45 47 0 0 0
SMALL
GASTEIGER

@<TRIPOS>ATOM
      1 C          -1.3357    4.1637    0.7203 C.ar    1  LIG11      -0.0611
      2 C          -0.0194    4.3757    1.1011 C.ar    1  LIG11      -0.0597
      3 C           0.8801    3.3087    1.0941 C.ar    1  LIG11      -0.0357
      4 C           0.5003    2.0282    0.7159 C.ar    1  LIG11       0.0716
      5 C          -0.8391    1.7962    0.3292 C.ar    1  LIG11       0.0041
      6 C          -1.7441    2.8861    0.3373 C.ar    1  LIG11      -0.0523
      7 N           1.4343    1.0647    0.7370 N.ar    1  LIG11      -0.2513
      8 C           1.0947   -0.1885    0.3599 C.ar    1  LIG11       0.0453
      9 C          -0.1956   -0.5171   -0.0336 C.ar    1  LIG11      -0.0358
     10 C          -1.1866    0.4733   -0.0442 C.ar    1  LIG11      -0.0259
     11 C          -2.5849    0.0885   -0.4778 C.3     1  LIG11       0.0707
     12 C          -2.9067    0.4759   -1.9051 C.2     1  LIG11       0.3115
     13 O          -2.0978    0.5823   -2.8158 O.2     1  LIG11      -0.2505
     14 O          -4.2565    0.6392   -2.0364 O.3     1  LIG11      -0.4647
     15 C           2.1843   -1.2433    0.3750 C.3     1  LIG11       0.0014
     16 C           2.7482   -1.4355    1.7922 C.3     1  LIG11      -0.0448
     17 C           3.8671   -2.4751    1.8122 C.3     1  LIG11      -0.0525
     18 C           4.9723   -2.1315    0.8178 C.3     1  LIG11      -0.0530
     19 C           4.4212   -1.9341   -0.5913 C.3     1  LIG11      -0.0525
     20 C           3.3037   -0.8931   -0.6187 C.3     1  LIG11      -0.0448
     21 H          -2.0441    4.9880    0.7182 H       1  LIG11       0.0618
     22 H           0.3147    5.3652    1.4008 H       1  LIG11       0.0618
     23 C          -4.7170    0.9955   -3.3486 C.3     1  LIG11       0.0897
     24 H           1.9126    3.4802    1.3903 H       1  LIG11       0.0639
     25 H          -2.7815    2.7570    0.0415 H       1  LIG11       0.0624
     26 C          -4.9497   -0.2531   -4.1783 C.3     1  LIG11      -0.0306
     27 H          -0.4283   -1.5340   -0.3362 H       1  LIG11       0.0639
     28 H          -3.3102    0.5438    0.2066 H       1  LIG11       0.0426
     29 H          -2.7259   -0.9961   -0.3936 H       1  LIG11       0.0426
     30 H           1.7484   -2.2016    0.0597 H       1  LIG11       0.0364
     31 H           1.9493   -1.7481    2.4761 H       1  LIG11       0.0272
     32 H           3.1382   -0.4860    2.1818 H       1  LIG11       0.0272
     33 H           4.2880   -2.5436    2.8216 H       1  LIG11       0.0265
     34 H           3.4527   -3.4618    1.5714 H       1  LIG11       0.0265
     35 H           5.4819   -1.2155    1.1414 H       1  LIG11       0.0265
     36 H           5.7233   -2.9295    0.8113 H       1  LIG11       0.0265
     37 H           5.2296   -1.6240   -1.2630 H       1  LIG11       0.0265
     38 H           4.0390   -2.8895   -0.9713 H       1  LIG11       0.0265
     39 H           3.7290    0.0918   -0.3852 H       1  LIG11       0.0272
     40 H           2.8967   -0.8234   -1.6352 H       1  LIG11       0.0272
     41 H          -4.0210    1.6829   -3.8429 H       1  LIG11       0.0694
     42 H          -5.6622    1.5331   -3.2201 H       1  LIG11       0.0694
     43 H          -5.3567    0.0041   -5.1603 H       1  LIG11       0.0262
     44 H          -5.6486   -0.9267   -3.6715 H       1  LIG11       0.0262
     45 H          -4.0181   -0.8097   -4.3210 H       1  LIG11       0.0262
@<TRIPOS>BOND
     1    43    26    1
     2    45    26    1
     3    26    44    1
     4    26    23    1
     5    41    23    1
     6    23    42    1
     7    23    14    1
     8    13    12    2
     9    14    12    1
    10    12    11    1
    11    40    20    1
    12    37    19    1
    13    38    19    1
    14    20    19    1
    15    20    39    1
    16    20    15    1
    17    19    18    1
    18    11    29    1
    19    11    10    1
    20    11    28    1
    21    27     9    1
    22    10     9   ar
    23    10     5   ar
    24     9     8   ar
    25    25     6    1
    26    30    15    1
    27     5     6   ar
    28     5     4   ar
    29     6     1   ar
    30     8    15    1
    31     8     7   ar
    32    15    16    1
    33     4     7   ar
    34     4     3   ar
    35    21     1    1
    36     1     2   ar
    37    36    18    1
    38    18    35    1
    39    18    17    1
    40     3     2   ar
    41     3    24    1
    42     2    22    1
    43    34    17    1
    44    16    17    1
    45    16    32    1
    46    16    31    1
    47    17    33    1
