@<TRIPOS>MOLECULE
3_14I
 61 64 0 0 0
SMALL
GASTEIGER

@<TRIPOS>ATOM
      1 C          -1.3518    4.1554    0.7157 C.ar    1  LIG11      -0.0608
      2 C          -0.0398    4.3845    1.0984 C.ar    1  LIG11      -0.0563
      3 C           0.9023    3.3375    1.1060 C.ar    1  LIG11      -0.0183
      4 C           0.5189    2.0388    0.7228 C.ar    1  LIG11       0.0750
      5 C          -0.8234    1.8005    0.3332 C.ar    1  LIG11       0.0044
      6 C          -1.7399    2.8760    0.3371 C.ar    1  LIG11      -0.0523
      7 N           1.4274    1.0450    0.7278 N.ar    1  LIG11      -0.2510
      8 C           1.0837   -0.2068    0.3564 C.ar    1  LIG11       0.0453
      9 C          -0.2064   -0.5212   -0.0343 C.ar    1  LIG11      -0.0358
     10 C          -1.1824    0.4813   -0.0462 C.ar    1  LIG11      -0.0259
     11 C          -2.5778    0.1064   -0.4973 C.3     1  LIG11       0.0707
     12 C          -2.8979    0.5673   -1.8990 C.2     1  LIG11       0.3115
     13 O          -3.7825    1.3699   -2.1705 O.2     1  LIG11      -0.2505
     14 O          -2.0905   -0.0476   -2.8081 O.3     1  LIG11      -0.4647
     15 C           2.1931   -1.2382    0.3866 C.3     1  LIG11       0.0014
     16 C           2.4992   -1.7931   -1.0141 C.3     1  LIG11      -0.0448
     17 C           3.6302   -2.8192   -0.9724 C.3     1  LIG11      -0.0525
     18 C           3.3380   -3.9396    0.0216 C.3     1  LIG11      -0.0530
     19 C           3.0357   -3.3933    1.4141 C.3     1  LIG11      -0.0525
     20 C           1.9013   -2.3706    1.3843 C.3     1  LIG11      -0.0448
     21 C           2.3273    3.6823    1.5398 C.3     1  LIG11      -0.0138
     22 C           3.3611    3.4966    0.4139 C.3     1  LIG11      -0.0461
     23 C          -2.3067    0.3645   -4.1625 C.3     1  LIG11       0.0897
     24 C           4.7601    3.9109    0.8688 C.3     1  LIG11      -0.0525
     25 C           5.1771    3.1818    2.1429 C.3     1  LIG11      -0.0530
     26 C          -1.3059   -0.3603   -5.0410 C.3     1  LIG11      -0.0306
     27 C           4.1600    3.3790    3.2633 C.3     1  LIG11      -0.0525
     28 C           2.7555    2.9597    2.8303 C.3     1  LIG11      -0.0461
     29 H          -2.0718    4.9696    0.7098 H       1  LIG11       0.0618
     30 H           0.2512    5.3909    1.3922 H       1  LIG11       0.0621
     31 H          -2.7770    2.7376    0.0409 H       1  LIG11       0.0624
     32 H          -0.4532   -1.5346   -0.3362 H       1  LIG11       0.0639
     33 H          -3.3203    0.5184    0.1961 H       1  LIG11       0.0426
     34 H          -2.7286   -0.9800   -0.4587 H       1  LIG11       0.0426
     35 H           3.1015   -0.7257    0.7367 H       1  LIG11       0.0364
     36 H           2.7756   -0.9751   -1.6910 H       1  LIG11       0.0272
     37 H           1.6078   -2.2665   -1.4450 H       1  LIG11       0.0272
     38 H           3.7796   -3.2429   -1.9719 H       1  LIG11       0.0265
     39 H           4.5662   -2.3192   -0.6944 H       1  LIG11       0.0265
     40 H           2.4826   -4.5278   -0.3330 H       1  LIG11       0.0265
     41 H           4.1952   -4.6205    0.0714 H       1  LIG11       0.0265
     42 H           2.7695   -4.2187    2.0840 H       1  LIG11       0.0265
     43 H           3.9380   -2.9255    1.8268 H       1  LIG11       0.0265
     44 H           0.9682   -2.8854    1.1222 H       1  LIG11       0.0272
     45 H           1.7577   -1.9580    2.3907 H       1  LIG11       0.0272
     46 H           2.3405    4.7558    1.7817 H       1  LIG11       0.0349
     47 H           3.0734    4.0926   -0.4611 H       1  LIG11       0.0271
     48 H           3.4016    2.4544    0.0791 H       1  LIG11       0.0271
     49 H          -2.1591    1.4469   -4.2494 H       1  LIG11       0.0694
     50 H          -3.3261    0.1043   -4.4684 H       1  LIG11       0.0694
     51 H           5.4826    3.7024    0.0716 H       1  LIG11       0.0265
     52 H           4.7817    4.9937    1.0434 H       1  LIG11       0.0265
     53 H           5.2848    2.1106    1.9319 H       1  LIG11       0.0265
     54 H           6.1585    3.5438    2.4692 H       1  LIG11       0.0265
     55 H          -0.2817   -0.1283   -4.7305 H       1  LIG11       0.0262
     56 H          -1.4302   -0.0770   -6.0899 H       1  LIG11       0.0262
     57 H          -1.4279   -1.4447   -4.9505 H       1  LIG11       0.0262
     58 H           4.4624    2.7983    4.1421 H       1  LIG11       0.0265
     59 H           4.1494    4.4333    3.5661 H       1  LIG11       0.0265
     60 H           2.7450    1.8722    2.6993 H       1  LIG11       0.0271
     61 H           2.0462    3.1820    3.6372 H       1  LIG11       0.0271
@<TRIPOS>BOND
     1    56    26    1
     2    26    57    1
     3    26    55    1
     4    26    23    1
     5    50    23    1
     6    49    23    1
     7    23    14    1
     8    14    12    1
     9    13    12    2
    10    38    17    1
    11    12    11    1
    12    36    16    1
    13    37    16    1
    14    16    17    1
    15    16    15    1
    16    17    39    1
    17    17    18    1
    18    11    34    1
    19    11    10    1
    20    11    33    1
    21    47    22    1
    22    32     9    1
    23    40    18    1
    24    10     9   ar
    25    10     5   ar
    26     9     8   ar
    27    18    41    1
    28    18    19    1
    29    31     6    1
    30    51    24    1
    31    48    22    1
    32     5     6   ar
    33     5     4   ar
    34     6     1   ar
    35     8    15    1
    36     8     7   ar
    37    15    35    1
    38    15    20    1
    39    22    24    1
    40    22    21    1
    41    29     1    1
    42     1     2   ar
    43     4     7   ar
    44     4     3   ar
    45    24    52    1
    46    24    25    1
    47     2     3   ar
    48     2    30    1
    49     3    21    1
    50    44    20    1
    51    20    19    1
    52    20    45    1
    53    19    43    1
    54    19    42    1
    55    21    46    1
    56    21    28    1
    57    53    25    1
    58    25    54    1
    59    25    27    1
    60    60    28    1
    61    28    27    1
    62    28    61    1
    63    27    59    1
    64    27    58    1
