@<TRIPOS>MOLECULE
3_14G
 55 58 0 0 0
SMALL
GASTEIGER

@<TRIPOS>ATOM
      1 C          -1.3491    4.1578    0.7093 C.ar    1  LIG11      -0.0608
      2 C          -0.0381    4.3844    1.0967 C.ar    1  LIG11      -0.0563
      3 C           0.8995    3.3346    1.1122 C.ar    1  LIG11      -0.0183
      4 C           0.5163    2.0368    0.7263 C.ar    1  LIG11       0.0750
      5 C          -0.8260    1.7991    0.3359 C.ar    1  LIG11       0.0044
      6 C          -1.7394    2.8777    0.3340 C.ar    1  LIG11      -0.0523
      7 N           1.4283    1.0455    0.7300 N.ar    1  LIG11      -0.2510
      8 C           1.0877   -0.2036    0.3460 C.ar    1  LIG11       0.0453
      9 C          -0.2050   -0.5198   -0.0363 C.ar    1  LIG11      -0.0358
     10 C          -1.1854    0.4784   -0.0372 C.ar    1  LIG11      -0.0259
     11 C          -2.5801    0.0950   -0.4786 C.3     1  LIG11       0.0707
     12 C          -2.8152    0.3499   -1.9488 C.2     1  LIG11       0.3115
     13 O          -2.2600   -0.2587   -2.8547 O.2     1  LIG11      -0.2505
     14 O          -3.7308    1.3450   -2.1206 O.3     1  LIG11      -0.4647
     15 C           2.1927   -1.2323    0.3702 C.3     1  LIG11       0.0014
     16 C           2.3626   -2.0261   -0.9399 C.3     1  LIG11      -0.0448
     17 C           2.0971   -3.4824   -0.5757 C.3     1  LIG11      -0.0524
     18 C           2.5306   -3.5757    0.8769 C.3     1  LIG11      -0.0524
     19 C           2.0006   -2.2823    1.4774 C.3     1  LIG11      -0.0448
     20 C           2.3174    3.6702    1.5478 C.3     1  LIG11      -0.0138
     21 C           2.8593    2.8535    2.7393 C.3     1  LIG11      -0.0461
     22 C           4.2024    2.2891    2.2835 C.3     1  LIG11      -0.0525
     23 C          -3.9870    1.6755   -3.4909 C.3     1  LIG11       0.0897
     24 C           4.6569    3.2306    1.1807 C.3     1  LIG11      -0.0525
     25 C           3.3683    3.5385    0.4337 C.3     1  LIG11      -0.0461
     26 C          -4.9771    2.8233   -3.5221 C.3     1  LIG11      -0.0306
     27 H          -2.0661    4.9745    0.6992 H       1  LIG11       0.0618
     28 H           0.2562    5.3905    1.3884 H       1  LIG11       0.0621
     29 H          -2.7750    2.7412    0.0356 H       1  LIG11       0.0624
     30 H          -0.4506   -1.5334   -0.3404 H       1  LIG11       0.0639
     31 H          -3.3377    0.6012    0.1301 H       1  LIG11       0.0426
     32 H          -2.7624   -0.9728   -0.3005 H       1  LIG11       0.0426
     33 H           3.1386   -0.7051    0.5562 H       1  LIG11       0.0364
     34 H           3.3998   -1.9273   -1.2851 H       1  LIG11       0.0272
     35 H           1.7208   -1.6898   -1.7604 H       1  LIG11       0.0272
     36 H           2.6446   -4.1767   -1.2195 H       1  LIG11       0.0265
     37 H           1.0273   -3.7045   -0.6663 H       1  LIG11       0.0265
     38 H           3.6242   -3.6075    0.9476 H       1  LIG11       0.0265
     39 H           2.1277   -4.4612    1.3765 H       1  LIG11       0.0265
     40 H           2.5349   -2.0097    2.3936 H       1  LIG11       0.0272
     41 H           0.9442   -2.4095    1.7435 H       1  LIG11       0.0272
     42 H           2.3338    4.7210    1.8726 H       1  LIG11       0.0349
     43 H           2.1900    2.0614    3.0893 H       1  LIG11       0.0271
     44 H           3.0179    3.5260    3.5920 H       1  LIG11       0.0271
     45 H           4.0675    1.2786    1.8818 H       1  LIG11       0.0265
     46 H           4.9247    2.2299    3.1029 H       1  LIG11       0.0265
     47 H          -4.4103    0.8063   -4.0064 H       1  LIG11       0.0694
     48 H          -3.0548    1.9788   -3.9806 H       1  LIG11       0.0694
     49 H           5.4145    2.7790    0.5340 H       1  LIG11       0.0265
     50 H           5.0746    4.1479    1.6120 H       1  LIG11       0.0265
     51 H           3.1419    2.7245   -0.2634 H       1  LIG11       0.0271
     52 H           3.4495    4.4561   -0.1585 H       1  LIG11       0.0271
     53 H          -5.9080    2.5434   -3.0178 H       1  LIG11       0.0262
     54 H          -5.2061    3.1134   -4.5512 H       1  LIG11       0.0262
     55 H          -4.5760    3.6925   -2.9902 H       1  LIG11       0.0262
@<TRIPOS>BOND
     1    54    26    1
     2    47    23    1
     3    48    23    1
     4    26    23    1
     5    26    53    1
     6    26    55    1
     7    23    14    1
     8    13    12    2
     9    14    12    1
    10    12    11    1
    11    35    16    1
    12    34    16    1
    13    36    17    1
    14    16    17    1
    15    16    15    1
    16    37    17    1
    17    17    18    1
    18    11    32    1
    19    11    10    1
    20    11    31    1
    21    30     9    1
    22    51    25    1
    23    52    25    1
    24    10     9   ar
    25    10     5   ar
    26     9     8   ar
    27    29     6    1
    28     6     5   ar
    29     6     1   ar
    30     5     4   ar
    31     8    15    1
    32     8     7   ar
    33    15    33    1
    34    15    19    1
    35    25    24    1
    36    25    20    1
    37    49    24    1
    38    27     1    1
    39     1     2   ar
    40     4     7   ar
    41     4     3   ar
    42    18    38    1
    43    18    39    1
    44    18    19    1
    45     2     3   ar
    46     2    28    1
    47     3    20    1
    48    24    50    1
    49    24    22    1
    50    19    41    1
    51    19    40    1
    52    20    42    1
    53    20    21    1
    54    45    22    1
    55    22    21    1
    56    22    46    1
    57    21    43    1
    58    21    44    1
