@<TRIPOS>MOLECULE
3_15B
 55 58 0 0 0
SMALL
GASTEIGER

@<TRIPOS>ATOM
      1 C          -1.3469    4.1519    0.7075 C.ar    1  LIG11      -0.0608
      2 C          -0.0337    4.3829    1.0942 C.ar    1  LIG11      -0.0563
      3 C           0.9055    3.3401    1.1194 C.ar    1  LIG11      -0.0183
      4 C           0.5136    2.0407    0.7266 C.ar    1  LIG11       0.0750
      5 C          -0.8274    1.7982    0.3360 C.ar    1  LIG11       0.0044
      6 C          -1.7414    2.8731    0.3359 C.ar    1  LIG11      -0.0523
      7 N           1.4268    1.0499    0.7256 N.ar    1  LIG11      -0.2510
      8 C           1.0835   -0.2011    0.3496 C.ar    1  LIG11       0.0453
      9 C          -0.2058   -0.5218   -0.0372 C.ar    1  LIG11      -0.0358
     10 C          -1.1856    0.4769   -0.0407 C.ar    1  LIG11      -0.0259
     11 C          -2.5868    0.0976   -0.4730 C.3     1  LIG11       0.0705
     12 C          -2.9035    0.4798   -1.8976 C.2     1  LIG11       0.3091
     13 O          -2.1263    0.6365   -2.8235 O.2     1  LIG11      -0.2507
     14 O          -4.2324    0.5989   -2.1061 O.3     1  LIG11      -0.4804
     15 C           2.1720   -1.2556    0.3630 C.3     1  LIG11       0.0014
     16 C           2.7446   -1.4393    1.7783 C.3     1  LIG11      -0.0448
     17 C           3.8645   -2.4776    1.7975 C.3     1  LIG11      -0.0525
     18 C           4.9640   -2.1373    0.7956 C.3     1  LIG11      -0.0530
     19 C           4.4051   -1.9475   -0.6115 C.3     1  LIG11      -0.0525
     20 C           3.2859   -0.9084   -0.6380 C.3     1  LIG11      -0.0448
     21 C           2.3622    3.5716    1.5524 C.3     1  LIG11      -0.0138
     22 C           2.6587    2.9534    2.9357 C.3     1  LIG11      -0.0461
     23 H          -2.0621    4.9704    0.6923 H       1  LIG11       0.0618
     24 C           2.2580    3.8571    4.0971 C.3     1  LIG11      -0.0525
     25 C           2.9595    5.2043    4.0024 C.3     1  LIG11      -0.0530
     26 H           0.2361    5.3966    1.3637 H       1  LIG11       0.0621
     27 C           2.6368    5.9018    2.6890 C.3     1  LIG11      -0.0525
     28 C           2.9072    5.0174    1.4682 C.3     1  LIG11      -0.0461
     29 H          -2.7769    2.7360    0.0378 H       1  LIG11       0.0624
     30 H          -0.4467   -1.5365   -0.3395 H       1  LIG11       0.0639
     31 H          -3.3138    0.5576    0.2058 H       1  LIG11       0.0426
     32 H          -2.7317   -0.9862   -0.3850 H       1  LIG11       0.0426
     33 H          -4.2983    0.8225   -3.0591 H       1  LIG11       0.2951
     34 H           1.7345   -2.2156    0.0550 H       1  LIG11       0.0364
     35 H           1.9499   -1.7483    2.4687 H       1  LIG11       0.0272
     36 H           3.1366   -0.4875    2.1602 H       1  LIG11       0.0272
     37 H           4.2909   -2.5406    2.8050 H       1  LIG11       0.0265
     38 H           3.4500   -3.4659    1.5636 H       1  LIG11       0.0265
     39 H           5.4738   -1.2189    1.1121 H       1  LIG11       0.0265
     40 H           5.7162   -2.9341    0.7891 H       1  LIG11       0.0265
     41 H           5.2095   -1.6394   -1.2889 H       1  LIG11       0.0265
     42 H           4.0224   -2.9053   -0.9849 H       1  LIG11       0.0265
     43 H           3.7110    0.0783   -0.4111 H       1  LIG11       0.0272
     44 H           2.8737   -0.8439   -1.6526 H       1  LIG11       0.0272
     45 H           2.9641    3.0184    0.8156 H       1  LIG11       0.0349
     46 H           3.7385    2.7639    3.0040 H       1  LIG11       0.0271
     47 H           2.1722    1.9800    3.0610 H       1  LIG11       0.0271
     48 H           1.1709    3.9987    4.1075 H       1  LIG11       0.0265
     49 H           2.5261    3.3737    5.0436 H       1  LIG11       0.0265
     50 H           2.6559    5.8401    4.8418 H       1  LIG11       0.0265
     51 H           4.0440    5.0625    4.0863 H       1  LIG11       0.0265
     52 H           1.5929    6.2265    2.7107 H       1  LIG11       0.0265
     53 H           3.2347    6.8175    2.6080 H       1  LIG11       0.0265
     54 H           2.5533    5.5175    0.5587 H       1  LIG11       0.0271
     55 H           3.9992    4.9479    1.3632 H       1  LIG11       0.0271
@<TRIPOS>BOND
     1    33    14    1
     2    13    12    2
     3    14    12    1
     4    12    11    1
     5    44    20    1
     6    41    19    1
     7    42    19    1
     8    20    19    1
     9    20    43    1
    10    20    15    1
    11    19    18    1
    12    11    32    1
    13    11    10    1
    14    11    31    1
    15    30     9    1
    16    10     9   ar
    17    10     5   ar
    18     9     8   ar
    19    29     6    1
    20    34    15    1
    21     6     5   ar
    22     6     1   ar
    23     5     4   ar
    24     8    15    1
    25     8     7   ar
    26    15    16    1
    27    54    28    1
    28    23     1    1
    29     1     2   ar
    30     7     4   ar
    31     4     3   ar
    32    40    18    1
    33    18    39    1
    34    18    17    1
    35    45    21    1
    36     2     3   ar
    37     2    26    1
    38     3    21    1
    39    55    28    1
    40    28    21    1
    41    28    27    1
    42    21    22    1
    43    38    17    1
    44    16    17    1
    45    16    36    1
    46    16    35    1
    47    17    37    1
    48    53    27    1
    49    27    52    1
    50    27    25    1
    51    22    46    1
    52    22    47    1
    53    22    24    1
    54    25    51    1
    55    25    24    1
    56    25    50    1
    57    24    48    1
    58    24    49    1
