@<TRIPOS>MOLECULE
3_15A
 49 52 0 0 0
SMALL
GASTEIGER
Energy = 0

@<TRIPOS>ATOM
      1 C          -1.3480    4.1528    0.7181 C.ar    1  LIG1       -0.0608
      2 C          -0.0347    4.3813    1.1039 C.ar    1  LIG1       -0.0563
      3 C           0.9057    3.3375    1.1037 C.ar    1  LIG1       -0.0183
      4 C           0.5132    2.0400    0.7183 C.ar    1  LIG1        0.0750
      5 C          -0.8276    1.7993    0.3288 C.ar    1  LIG1        0.0044
      6 C          -1.7408    2.8763    0.3327 C.ar    1  LIG1       -0.0523
      7 N           1.4261    1.0503    0.7322 N.ar    1  LIG1       -0.2510
      8 C           1.0844   -0.2007    0.3551 C.ar    1  LIG1        0.0453
      9 C          -0.2049   -0.5227   -0.0321 C.ar    1  LIG1       -0.0358
     10 C          -1.1847    0.4767   -0.0439 C.ar    1  LIG1       -0.0259
     11 C          -2.5857    0.0965   -0.4758 C.3     1  LIG1        0.0705
     12 C          -2.9027    0.4774   -1.9006 C.2     1  LIG1        0.3091
     13 O          -2.1252    0.6378   -2.8257 O.2     1  LIG1       -0.2507
     14 O          -4.2318    0.5903   -2.1105 O.3     1  LIG1       -0.4804
     15 C           2.1614   -1.2625    0.4052 C.3     1  LIG1        0.0014
     16 C           3.4733   -0.8146   -0.2647 C.3     1  LIG1       -0.0448
     17 C           4.4210   -0.5030    0.8850 C.3     1  LIG1       -0.0524
     18 C           4.0576   -1.5526    1.9197 C.3     1  LIG1       -0.0524
     19 C           2.5361   -1.6141    1.8578 C.3     1  LIG1       -0.0448
     20 C           2.3592    3.5635    1.5250 C.3     1  LIG1       -0.0138
     21 C           2.8678    5.0130    1.5744 C.3     1  LIG1       -0.0461
     22 C           2.6323    5.5077    3.0033 C.3     1  LIG1       -0.0525
     23 H          -2.0661    4.9689    0.7180 H       1  LIG1        0.0618
     24 C           2.2544    4.2808    3.8273 C.3     1  LIG1       -0.0525
     25 C           2.6212    3.0849    2.9590 C.3     1  LIG1       -0.0461
     26 H           0.2388    5.3874    1.4068 H       1  LIG1        0.0621
     27 H          -2.7768    2.7399    0.0357 H       1  LIG1        0.0624
     28 H          -0.4464   -1.5403   -0.3242 H       1  LIG1        0.0639
     29 H          -3.3127    0.5575    0.2025 H       1  LIG1        0.0426
     30 H          -2.7302   -0.9872   -0.3867 H       1  LIG1        0.0426
     31 H          -4.2977    0.8136   -3.0636 H       1  LIG1        0.2951
     32 H           1.8030   -2.1614   -0.1126 H       1  LIG1        0.0364
     33 H           3.3620    0.0321   -0.9497 H       1  LIG1        0.0272
     34 H           3.8834   -1.6516   -0.8446 H       1  LIG1        0.0272
     35 H           4.2324    0.5029    1.2774 H       1  LIG1        0.0265
     36 H           5.4708   -0.5623    0.5840 H       1  LIG1        0.0265
     37 H           4.4216   -1.2972    2.9190 H       1  LIG1        0.0265
     38 H           4.4840   -2.5233    1.6398 H       1  LIG1        0.0265
     39 H           2.1100   -0.9032    2.5764 H       1  LIG1        0.0272
     40 H           2.1707   -2.6084    2.1363 H       1  LIG1        0.0272
     41 H           2.9955    3.0178    0.8161 H       1  LIG1        0.0349
     42 H           2.4253    5.6715    0.8209 H       1  LIG1        0.0271
     43 H           3.9503    5.0138    1.3887 H       1  LIG1        0.0271
     44 H           1.8363    6.2586    3.0428 H       1  LIG1        0.0265
     45 H           3.5404    5.9792    3.3951 H       1  LIG1        0.0265
     46 H           1.1769    4.2853    4.0294 H       1  LIG1        0.0265
     47 H           2.7693    4.2595    4.7926 H       1  LIG1        0.0265
     48 H           2.0615    2.1893    3.2458 H       1  LIG1        0.0271
     49 H           3.6890    2.8632    3.0818 H       1  LIG1        0.0271
@<TRIPOS>BOND
     1    31    14    1
     2    13    12    2
     3    14    12    1
     4    12    11    1
     5    33    16    1
     6    34    16    1
     7    11    30    1
     8    11    10    1
     9    11    29    1
    10    28     9    1
    11    16    15    1
    12    16    17    1
    13    32    15    1
    14    10     9   ar
    15    10     5   ar
    16     9     8   ar
    17    27     6    1
    18     5     6   ar
    19     5     4   ar
    20     6     1   ar
    21     8    15    1
    22     8     7   ar
    23    15    19    1
    24    36    17    1
    25    23     1    1
    26     1     2   ar
    27     4     7   ar
    28     4     3   ar
    29    41    20    1
    30    42    21    1
    31    17    35    1
    32    17    18    1
    33     3     2   ar
    34     3    20    1
    35     2    26    1
    36    43    21    1
    37    20    21    1
    38    20    25    1
    39    21    22    1
    40    38    18    1
    41    19    18    1
    42    19    40    1
    43    19    39    1
    44    18    37    1
    45    25    49    1
    46    25    48    1
    47    25    24    1
    48    22    44    1
    49    22    45    1
    50    22    24    1
    51    24    46    1
    52    24    47    1
