@<TRIPOS>MOLECULE
3_2
 23 24 0 0 0
SMALL
GASTEIGER

@<TRIPOS>ATOM
      1 C          -1.3511    4.1397    0.7168 C.ar    1  LIG11      -0.0611
      2 C          -0.0344    4.3715    1.0982 C.ar    1  LIG11      -0.0597
      3 C           0.8870    3.3200    1.0958 C.ar    1  LIG11      -0.0357
      4 C           0.5255    2.0336    0.7197 C.ar    1  LIG11       0.0719
      5 C          -0.8131    1.8033    0.3332 C.ar    1  LIG11       0.0004
      6 C          -1.7421    2.8581    0.3345 C.ar    1  LIG11      -0.0526
      7 N           1.4497    1.0595    0.7351 N.ar    1  LIG11      -0.2401
      8 C           1.0682   -0.1909    0.3619 C.ar    1  LIG11       0.1482
      9 C          -0.2247   -0.5088   -0.0324 C.ar    1  LIG11      -0.0287
     10 C          -1.1762    0.5050   -0.0458 C.ar    1  LIG11      -0.0503
     11 C           2.0963   -1.2762    0.3783 C.2     1  LIG11       0.3574
     12 O           1.8608   -2.4345    0.0630 O.2     1  LIG11      -0.2432
     13 O           3.3001   -0.7962    0.7846 O.3     1  LIG11      -0.4634
     14 H          -2.0714    4.9539    0.7169 H       1  LIG11       0.0618
     15 H           0.2816    5.3673    1.3984 H       1  LIG11       0.0618
     16 H           1.9153    3.5097    1.3955 H       1  LIG11       0.0639
     17 H          -2.7744    2.6865    0.0377 H       1  LIG11       0.0624
     18 H          -0.4884   -1.5209   -0.3232 H       1  LIG11       0.0641
     19 H          -2.1946    0.2780   -0.3514 H       1  LIG11       0.0625
     20 C           4.3367   -1.7750    0.8257 C.3     1  LIG11       0.0820
     21 H           5.2538   -1.2844    1.1632 H       1  LIG11       0.0661
     22 H           4.5129   -2.1896   -0.1718 H       1  LIG11       0.0661
     23 H           4.0871   -2.5689    1.5368 H       1  LIG11       0.0661
@<TRIPOS>BOND
     1    19    10    1
     2    18     9    1
     3    22    20    1
     4    10     9   ar
     5    10     5   ar
     6     9     8   ar
     7    17     6    1
     8    12    11    2
     9     5     6   ar
    10     5     4   ar
    11     6     1   ar
    12     8    11    1
    13     8     7   ar
    14    11    13    1
    15     1    14    1
    16     1     2   ar
    17     4     7   ar
    18     4     3   ar
    19    13    20    1
    20    20    21    1
    21    20    23    1
    22     3     2   ar
    23     3    16    1
    24     2    15    1
