@<TRIPOS>MOLECULE
3_3C
 49 52 0 0 0
SMALL
GASTEIGER
Energy = 0

@<TRIPOS>ATOM
      1 C          -1.3436    4.1535    0.7166 C.ar    1  LIG1       -0.0574
      2 C          -0.0240    4.3759    1.0901 C.ar    1  LIG1       -0.0560
      3 C           0.9120    3.3311    1.0913 C.ar    1  LIG1       -0.0183
      4 C           0.5153    2.0381    0.7235 C.ar    1  LIG1        0.0756
      5 C          -0.8339    1.8063    0.3359 C.ar    1  LIG1        0.0041
      6 C          -1.7838    2.8741    0.3546 C.ar    1  LIG1       -0.0351
      7 N           1.4302    1.0493    0.7439 N.ar    1  LIG1       -0.2398
      8 C           1.0735   -0.2020    0.3680 C.ar    1  LIG1        0.1482
      9 C          -0.2024   -0.5241   -0.0457 C.ar    1  LIG1       -0.0287
     10 C          -1.1546    0.4886   -0.0611 C.ar    1  LIG1       -0.0501
     11 C           2.1138   -1.2739    0.4000 C.2     1  LIG1        0.3574
     12 O           1.8985   -2.4343    0.0778 O.2     1  LIG1       -0.2432
     13 O           3.3039   -0.7798    0.8299 O.3     1  LIG1       -0.4634
     14 H          -2.0191    5.0053    0.7111 H       1  LIG1        0.0621
     15 H           0.2692    5.3808    1.3860 H       1  LIG1        0.0621
     16 C           2.3471    3.6031    1.5247 C.3     1  LIG1       -0.0138
     17 C          -3.2392    2.6652   -0.0520 C.3     1  LIG1       -0.0152
     18 H          -0.4583   -1.5340   -0.3493 H       1  LIG1        0.0641
     19 H          -2.1530    0.2244   -0.3970 H       1  LIG1        0.0625
     20 C           4.3514   -1.7459    0.8886 C.3     1  LIG1        0.0820
     21 H           5.2556   -1.2450    1.2454 H       1  LIG1        0.0661
     22 H           4.5521   -2.1553   -0.1064 H       1  LIG1        0.0661
     23 H           4.0977   -2.5449    1.5925 H       1  LIG1        0.0661
     24 C          -4.2948    3.5853    0.6040 C.3     1  LIG1       -0.0462
     25 C          -4.7865    4.5005   -0.5088 C.3     1  LIG1       -0.0525
     26 C          -4.7341    3.6071   -1.7351 C.3     1  LIG1       -0.0525
     27 C          -3.4169    2.8619   -1.5709 C.3     1  LIG1       -0.0462
     28 C           2.9818    4.8906    0.9523 C.3     1  LIG1       -0.0461
     29 C           3.2731    5.7794    2.1558 C.3     1  LIG1       -0.0525
     30 C           3.5326    4.7894    3.2776 C.3     1  LIG1       -0.0525
     31 C           2.4641    3.7299    3.0549 C.3     1  LIG1       -0.0461
     32 H           2.9956    2.7816    1.1952 H       1  LIG1        0.0349
     33 H          -3.5405    1.6500    0.2302 H       1  LIG1        0.0349
     34 H          -3.9481    4.1368    1.4822 H       1  LIG1        0.0271
     35 H          -5.1383    2.9674    0.9409 H       1  LIG1        0.0271
     36 H          -4.1115    5.3554   -0.6298 H       1  LIG1        0.0265
     37 H          -5.7930    4.8826   -0.3161 H       1  LIG1        0.0265
     38 H          -4.7751    4.1762   -2.6682 H       1  LIG1        0.0265
     39 H          -5.5720    2.9000   -1.7274 H       1  LIG1        0.0265
     40 H          -2.6051    3.4652   -1.9967 H       1  LIG1        0.0271
     41 H          -3.4253    1.9069   -2.1066 H       1  LIG1        0.0271
     42 H           2.3763    5.4040    0.1994 H       1  LIG1        0.0271
     43 H           3.9316    4.6313    0.4663 H       1  LIG1        0.0271
     44 H           2.3987    6.3974    2.3904 H       1  LIG1        0.0265
     45 H           4.1238    6.4447    1.9826 H       1  LIG1        0.0265
     46 H           3.4598    5.2511    4.2664 H       1  LIG1        0.0265
     47 H           4.5315    4.3493    3.1753 H       1  LIG1        0.0265
     48 H           1.5223    4.0616    3.5097 H       1  LIG1        0.0271
     49 H           2.7314    2.7764    3.5223 H       1  LIG1        0.0271
@<TRIPOS>BOND
     1    38    26    1
     2    41    27    1
     3    40    27    1
     4    26    39    1
     5    26    27    1
     6    26    25    1
     7    27    17    1
     8    36    25    1
     9    25    37    1
    10    25    24    1
    11    19    10    1
    12    18     9    1
    13    22    20    1
    14    10     9   ar
    15    10     5   ar
    16    17    33    1
    17    17     6    1
    18    17    24    1
    19     9     8   ar
    20    12    11    2
    21    42    28    1
    22     5     6   ar
    23     5     4   ar
    24     6     1   ar
    25     8    11    1
    26     8     7   ar
    27    11    13    1
    28    43    28    1
    29    24    35    1
    30    24    34    1
    31    14     1    1
    32     1     2   ar
    33     4     7   ar
    34     4     3   ar
    35    13    20    1
    36    20    21    1
    37    20    23    1
    38    28    16    1
    39    28    29    1
    40     2     3   ar
    41     2    15    1
    42     3    16    1
    43    32    16    1
    44    16    31    1
    45    45    29    1
    46    29    44    1
    47    29    30    1
    48    31    30    1
    49    31    48    1
    50    31    49    1
    51    47    30    1
    52    30    46    1
