@<TRIPOS>MOLECULE
3_3E
 55 58 0 0 0
SMALL
GASTEIGER

@<TRIPOS>ATOM
      1 C          -1.2844    4.2054    0.7285 C.ar    1  LIG11      -0.0576
      2 C           0.0142    4.3552    1.1724 C.ar    1  LIG11      -0.0595
      3 C           0.8681    3.2684    1.1165 C.ar    1  LIG11      -0.0357
      4 C           0.4487    2.0210    0.6929 C.ar    1  LIG11       0.0724
      5 C          -0.9058    1.7819    0.3019 C.ar    1  LIG11       0.0073
      6 C          -1.7586    2.9660    0.2388 C.ar    1  LIG11      -0.0348
      7 N           1.4240    1.1090    0.7019 N.ar    1  LIG11      -0.2401
      8 C           1.1326   -0.1482    0.3276 C.ar    1  LIG11       0.1485
      9 C          -0.1470   -0.5477    0.0018 C.ar    1  LIG11      -0.0252
     10 C          -1.2032    0.3800    0.0347 C.ar    1  LIG11      -0.0326
     11 C           2.2363   -1.1559    0.2992 C.2     1  LIG11       0.3575
     12 O           2.0734   -2.3286   -0.0091 O.2     1  LIG11      -0.2432
     13 O           3.4179   -0.5893    0.6567 O.3     1  LIG11      -0.4634
     14 H          -1.9285    5.0823    0.7459 H       1  LIG11       0.0621
     15 H           0.3714    5.3169    1.5289 H       1  LIG11       0.0618
     16 H           1.9034    3.3987    1.4279 H       1  LIG11       0.0639
     17 C          -3.1492    3.0029   -0.3993 C.3     1  LIG11      -0.0152
     18 H          -0.3080   -1.5855   -0.2577 H       1  LIG11       0.0644
     19 C          -2.6197   -0.1828   -0.1408 C.3     1  LIG11      -0.0152
     20 C           4.5232   -1.4908    0.6542 C.3     1  LIG11       0.0820
     21 H           5.4153   -0.9350    0.9561 H       1  LIG11       0.0661
     22 H           4.6888   -1.8920   -0.3506 H       1  LIG11       0.0661
     23 H           4.3600   -2.3001    1.3728 H       1  LIG11       0.0661
     24 C          -2.9715   -1.4085    0.7427 C.3     1  LIG11      -0.0462
     25 C          -2.7477   -2.7896    0.1278 C.3     1  LIG11      -0.0525
     26 C          -3.2362   -2.8780   -1.3101 C.3     1  LIG11      -0.0530
     27 C          -2.6439   -1.7718   -2.1707 C.3     1  LIG11      -0.0525
     28 C          -2.9929   -0.3929   -1.6201 C.3     1  LIG11      -0.0462
     29 H          -3.2869    0.5728    0.2720 H       1  LIG11       0.0349
     30 H          -4.0460   -1.3425    0.9683 H       1  LIG11       0.0271
     31 H          -2.4621   -1.3478    1.7124 H       1  LIG11       0.0271
     32 H          -1.6908   -3.0665    0.1742 H       1  LIG11       0.0265
     33 H          -3.2728   -3.5388    0.7331 H       1  LIG11       0.0265
     34 H          -2.9696   -3.8549   -1.7291 H       1  LIG11       0.0265
     35 H          -4.3311   -2.8122   -1.3297 H       1  LIG11       0.0265
     36 H          -1.5573   -1.8904   -2.2410 H       1  LIG11       0.0265
     37 H          -3.0331   -1.8606   -3.1918 H       1  LIG11       0.0265
     38 H          -2.5321    0.3722   -2.2567 H       1  LIG11       0.0271
     39 H          -4.0791   -0.2603   -1.7174 H       1  LIG11       0.0271
     40 C          -3.3138    4.1106   -1.4679 C.3     1  LIG11      -0.0462
     41 C          -4.6996    4.0497   -2.1120 C.3     1  LIG11      -0.0525
     42 C          -5.8075    4.1312   -1.0653 C.3     1  LIG11      -0.0530
     43 C          -5.6454    3.0676    0.0174 C.3     1  LIG11      -0.0525
     44 C          -4.2599    3.1201    0.6598 C.3     1  LIG11      -0.0462
     45 H          -3.2980    2.0919   -0.9714 H       1  LIG11       0.0349
     46 H          -2.5467    3.9982   -2.2442 H       1  LIG11       0.0271
     47 H          -3.1812    5.1089   -1.0357 H       1  LIG11       0.0271
     48 H          -4.8088    4.8715   -2.8287 H       1  LIG11       0.0265
     49 H          -4.7993    3.1160   -2.6792 H       1  LIG11       0.0265
     50 H          -5.7972    5.1255   -0.6020 H       1  LIG11       0.0265
     51 H          -6.7828    4.0161   -1.5515 H       1  LIG11       0.0265
     52 H          -6.4131    3.2065    0.7869 H       1  LIG11       0.0265
     53 H          -5.8067    2.0741   -0.4191 H       1  LIG11       0.0265
     54 H          -4.1604    4.0620    1.2145 H       1  LIG11       0.0271
     55 H          -4.1749    2.3177    1.4019 H       1  LIG11       0.0271
@<TRIPOS>BOND
     1    37    27    1
     2    48    41    1
     3    49    41    1
     4    38    28    1
     5    46    40    1
     6    36    27    1
     7    27    28    1
     8    27    26    1
     9    41    40    1
    10    41    42    1
    11    34    26    1
    12    39    28    1
    13    28    19    1
    14    51    42    1
    15    40    47    1
    16    40    17    1
    17    35    26    1
    18    26    25    1
    19    42    50    1
    20    42    43    1
    21    45    17    1
    22    53    43    1
    23    17     6    1
    24    17    44    1
    25    22    20    1
    26    18     9    1
    27    19    10    1
    28    19    29    1
    29    19    24    1
    30    12    11    2
    31     9    10   ar
    32     9     8   ar
    33    43    44    1
    34    43    52    1
    35    10     5   ar
    36    25    32    1
    37    25    33    1
    38    25    24    1
    39     6     5   ar
    40     6     1   ar
    41    11     8    1
    42    11    13    1
    43     5     4   ar
    44     8     7   ar
    45    20    13    1
    46    20    21    1
    47    20    23    1
    48    44    54    1
    49    44    55    1
    50     4     7   ar
    51     4     3   ar
    52     1    14    1
    53     1     2   ar
    54    24    30    1
    55    24    31    1
    56     3     2   ar
    57     3    16    1
    58     2    15    1
