@<TRIPOS>MOLECULE
3_3G
 47 51 0 0 0
SMALL
GASTEIGER

@<TRIPOS>ATOM
      1 C          -1.3158    4.1763    0.7337 C.ar    1  LIG11      -0.0611
      2 C          -0.0008    4.3766    1.1072 C.ar    1  LIG11      -0.0597
      3 C           0.8794    3.2990    1.0886 C.ar    1  LIG11      -0.0357
      4 C           0.4817    2.0255    0.7067 C.ar    1  LIG11       0.0722
      5 C          -0.8643    1.7779    0.3152 C.ar    1  LIG11       0.0041
      6 C          -1.7369    2.9012    0.3457 C.ar    1  LIG11      -0.0523
      7 N           1.4336    1.0913    0.7375 N.ar    1  LIG11      -0.2401
      8 C           1.1012   -0.1636    0.3760 C.ar    1  LIG11       0.1485
      9 C          -0.1782   -0.5251   -0.0238 C.ar    1  LIG11      -0.0250
     10 C          -1.2113    0.4319   -0.0699 C.ar    1  LIG11      -0.0298
     11 C           2.1683   -1.2120    0.4093 C.2     1  LIG11       0.3575
     12 O           1.9781   -2.3814    0.1045 O.2     1  LIG11      -0.2432
     13 O           3.3517   -0.6850    0.8179 O.3     1  LIG11      -0.4634
     14 H          -2.0200    5.0045    0.7410 H       1  LIG11       0.0618
     15 H           0.3453    5.3602    1.4118 H       1  LIG11       0.0618
     16 H           1.9152    3.4586    1.3831 H       1  LIG11       0.0639
     17 H          -2.7803    2.8164    0.0657 H       1  LIG11       0.0624
     18 H          -0.3353   -1.5638   -0.2934 H       1  LIG11       0.0644
     19 C          -2.6303   -0.0149   -0.5241 C.3     1  LIG11      -0.0028
     20 C           4.4227   -1.6254    0.8746 C.3     1  LIG11       0.0820
     21 H           4.6198   -2.0425   -0.1180 H       1  LIG11       0.0661
     22 H           4.1973   -2.4209    1.5917 H       1  LIG11       0.0661
     23 H           5.3194   -1.0988    1.2127 H       1  LIG11       0.0661
     24 C          -3.6735    0.1976    0.6144 C.3     1  LIG11      -0.0405
     25 C          -5.0931   -0.1764    0.1539 C.3     1  LIG11      -0.0397
     26 C          -5.4642    0.6537   -1.0860 C.3     1  LIG11      -0.0473
     27 C          -4.4935    0.3535   -2.2400 C.3     1  LIG11      -0.0397
     28 C          -3.0640    0.7365   -1.8191 C.3     1  LIG11      -0.0405
     29 C          -5.1327   -1.6685   -0.1980 C.3     1  LIG11      -0.0473
     30 C          -4.1416   -1.9551   -1.3322 C.3     1  LIG11      -0.0397
     31 C          -4.5382   -1.1432   -2.5709 C.3     1  LIG11      -0.0473
     32 H          -3.6996    1.2275    0.9748 H       1  LIG11       0.0276
     33 C          -2.7256   -1.5449   -0.8868 C.3     1  LIG11      -0.0405
     34 H          -3.3970   -0.4085    1.4883 H       1  LIG11       0.0276
     35 H          -5.8057    0.0278    0.9612 H       1  LIG11       0.0301
     36 H          -5.4394    1.7231   -0.8431 H       1  LIG11       0.0271
     37 H          -6.4909    0.4213   -1.3947 H       1  LIG11       0.0271
     38 H          -4.7821    0.9322   -3.1248 H       1  LIG11       0.0301
     39 H          -3.0277    1.8217   -1.7083 H       1  LIG11       0.0276
     40 H          -2.3644    0.5046   -2.6340 H       1  LIG11       0.0276
     41 H          -6.1466   -1.9577   -0.5006 H       1  LIG11       0.0271
     42 H          -4.8803   -2.2703    0.6837 H       1  LIG11       0.0271
     43 H          -4.1570   -3.0242   -1.5727 H       1  LIG11       0.0301
     44 H          -5.5451   -1.4264   -2.9013 H       1  LIG11       0.0271
     45 H          -3.8567   -1.3660   -3.4011 H       1  LIG11       0.0271
     46 H          -2.0262   -1.7890   -1.6978 H       1  LIG11       0.0276
     47 H          -2.4459   -2.1604   -0.0211 H       1  LIG11       0.0276
@<TRIPOS>BOND
     1    45    31    1
     2    38    27    1
     3    44    31    1
     4    40    28    1
     5    31    27    1
     6    31    30    1
     7    27    28    1
     8    27    26    1
     9    28    39    1
    10    28    19    1
    11    46    33    1
    12    43    30    1
    13    37    26    1
    14    30    33    1
    15    30    29    1
    16    26    36    1
    17    26    25    1
    18    33    19    1
    19    33    47    1
    20    19    10    1
    21    19    24    1
    22    41    29    1
    23    18     9    1
    24    29    25    1
    25    29    42    1
    26    21    20    1
    27    10     9   ar
    28    10     5   ar
    29     9     8   ar
    30    17     6    1
    31    12    11    2
    32    25    24    1
    33    25    35    1
    34     5     6   ar
    35     5     4   ar
    36     6     1   ar
    37     8    11    1
    38     8     7   ar
    39    11    13    1
    40    24    32    1
    41    24    34    1
    42     4     7   ar
    43     4     3   ar
    44     1    14    1
    45     1     2   ar
    46    13    20    1
    47    20    23    1
    48    20    22    1
    49     3     2   ar
    50     3    16    1
    51     2    15    1
