@<TRIPOS>MOLECULE
3_5
 20 21 0 0 0
SMALL
GASTEIGER
Energy = 0

@<TRIPOS>ATOM
      1 C          -1.3513    4.1401    0.7168 C.ar    1  LIG1       -0.0611
      2 C          -0.0348    4.3729    1.0983 C.ar    1  LIG1       -0.0597
      3 C           0.8873    3.3220    1.0963 C.ar    1  LIG1       -0.0357
      4 C           0.5267    2.0353    0.7205 C.ar    1  LIG1        0.0710
      5 C          -0.8123    1.8032    0.3335 C.ar    1  LIG1        0.0012
      6 C          -1.7416    2.8582    0.3347 C.ar    1  LIG1       -0.0525
      7 N           1.4505    1.0573    0.7349 N.ar    1  LIG1       -0.2542
      8 C           1.0640   -0.1883    0.3615 C.ar    1  LIG1        0.0422
      9 C          -0.2230   -0.5130   -0.0331 C.ar    1  LIG1        0.0775
     10 C          -1.1770    0.5032   -0.0464 C.ar    1  LIG1       -0.0371
     11 C          -0.5148   -1.9055   -0.4156 C.2     1  LIG1        0.3383
     12 O           0.2822   -2.8243   -0.4193 O.2     1  LIG1       -0.2451
     13 O          -1.7969   -2.0862   -0.7781 O.3     1  LIG1       -0.4771
     14 H          -2.0720    4.9539    0.7167 H       1  LIG1        0.0618
     15 H           0.2807    5.3690    1.3982 H       1  LIG1        0.0618
     16 H           1.9154    3.5118    1.3961 H       1  LIG1        0.0639
     17 H          -2.7739    2.6865    0.0380 H       1  LIG1        0.0624
     18 H           1.8528   -0.9366    0.3928 H       1  LIG1        0.0838
     19 H          -2.1986    0.2890   -0.3499 H       1  LIG1        0.0633
     20 H          -1.8503   -3.0394   -1.0033 H       1  LIG1        0.2954
@<TRIPOS>BOND
     1    20    13    1
     2    13    11    1
     3    12    11    2
     4    11     9    1
     5    19    10    1
     6    10     9   ar
     7    10     5   ar
     8     9     8   ar
     9    17     6    1
    10     5     6   ar
    11     5     4   ar
    12     6     1   ar
    13     8    18    1
    14     8     7   ar
    15    14     1    1
    16     1     2   ar
    17     4     7   ar
    18     4     3   ar
    19     3     2   ar
    20     3    16    1
    21     2    15    1
