@<TRIPOS>MOLECULE
3_7B
 49 52 0 0 0
SMALL
GASTEIGER

@<TRIPOS>ATOM
      1 C          -1.3253    4.1730    0.7338 C.ar    1  LIG11      -0.0611
      2 C          -0.0091    4.3773    1.1075 C.ar    1  LIG11      -0.0597
      3 C           0.8782    3.3036    1.0898 C.ar    1  LIG11      -0.0357
      4 C           0.4862    2.0288    0.7062 C.ar    1  LIG11       0.0716
      5 C          -0.8540    1.7892    0.3142 C.ar    1  LIG11       0.0046
      6 C          -1.7403    2.8979    0.3445 C.ar    1  LIG11      -0.0523
      7 N           1.4283    1.0788    0.7347 N.ar    1  LIG11      -0.2505
      8 C           1.1135   -0.1856    0.3678 C.ar    1  LIG11       0.0593
      9 C          -0.1854   -0.5278   -0.0110 C.ar    1  LIG11       0.0845
     10 C          -1.2033    0.4558   -0.0705 C.ar    1  LIG11      -0.0194
     11 C          -0.4644   -1.9349   -0.3325 C.2     1  LIG11       0.3410
     12 O          -0.2954   -2.4373   -1.4284 O.2     1  LIG11      -0.2449
     13 O          -0.9281   -2.5316    0.7915 O.3     1  LIG11      -0.4644
     14 C           2.2290   -1.2115    0.4726 C.3     1  LIG11       0.0022
     15 C           2.2929   -1.8073    1.8928 C.3     1  LIG11      -0.0448
     16 C           3.7575   -1.7425    2.3076 C.3     1  LIG11      -0.0524
     17 C           4.2857   -0.5214    1.5769 C.3     1  LIG11      -0.0524
     18 C           3.6377   -0.6416    0.2054 C.3     1  LIG11      -0.0448
     19 C          -2.5999    0.0486   -0.5239 C.3     1  LIG11      -0.0144
     20 C          -1.2380   -3.9144    0.6196 C.3     1  LIG11       0.0820
     21 C          -3.6814    0.1160    0.5626 C.3     1  LIG11      -0.0462
     22 C          -4.9741    0.1720   -0.2380 C.3     1  LIG11      -0.0525
     23 C          -4.6365    1.0930   -1.4013 C.3     1  LIG11      -0.0525
     24 C          -3.1764    0.7939   -1.7444 C.3     1  LIG11      -0.0462
     25 H          -2.0327    4.9983    0.7437 H       1  LIG11       0.0618
     26 H           0.3324    5.3622    1.4134 H       1  LIG11       0.0618
     27 H           1.9127    3.4659    1.3859 H       1  LIG11       0.0639
     28 H          -2.7827    2.7900    0.0664 H       1  LIG11       0.0624
     29 H           2.0684   -2.0062   -0.2646 H       1  LIG11       0.0364
     30 H           1.9217   -2.8376    1.9137 H       1  LIG11       0.0272
     31 H           1.6862   -1.2318    2.6033 H       1  LIG11       0.0272
     32 H           4.2836   -2.6433    1.9698 H       1  LIG11       0.0265
     33 H           3.8781   -1.6650    3.3919 H       1  LIG11       0.0265
     34 H           5.3779   -0.5118    1.5198 H       1  LIG11       0.0265
     35 H           3.9585    0.3968    2.0780 H       1  LIG11       0.0265
     36 H           4.2082   -1.3669   -0.3899 H       1  LIG11       0.0272
     37 H           3.6491    0.3036   -0.3461 H       1  LIG11       0.0272
     38 H          -2.5818   -1.0009   -0.8421 H       1  LIG11       0.0349
     39 H          -2.0279   -4.0398   -0.1277 H       1  LIG11       0.0661
     40 H          -1.6004   -4.3020    1.5756 H       1  LIG11       0.0661
     41 H          -0.3420   -4.4750    0.3352 H       1  LIG11       0.0661
     42 H          -3.5932    1.0034    1.1966 H       1  LIG11       0.0271
     43 H          -3.6492   -0.7568    1.2234 H       1  LIG11       0.0271
     44 H          -5.8150    0.5428    0.3550 H       1  LIG11       0.0265
     45 H          -5.2319   -0.8267   -0.6102 H       1  LIG11       0.0265
     46 H          -4.7400    2.1388   -1.0903 H       1  LIG11       0.0265
     47 H          -5.3005    0.9363   -2.2568 H       1  LIG11       0.0265
     48 H          -2.6382    1.7069   -2.0151 H       1  LIG11       0.0271
     49 H          -3.1274    0.1409   -2.6251 H       1  LIG11       0.0271
@<TRIPOS>BOND
     1    49    24    1
     2    47    23    1
     3    48    24    1
     4    24    23    1
     5    24    19    1
     6    12    11    2
     7    23    46    1
     8    23    22    1
     9    38    19    1
    10    45    22    1
    11    19    10    1
    12    19    21    1
    13    36    18    1
    14    37    18    1
    15    11     9    1
    16    11    13    1
    17    29    14    1
    18    22    44    1
    19    22    21    1
    20    39    20    1
    21    10     9   ar
    22    10     5   ar
    23     9     8   ar
    24    28     6    1
    25    18    14    1
    26    18    17    1
    27     5     6   ar
    28     5     4   ar
    29    41    20    1
    30     6     1   ar
    31     8    14    1
    32     8     7   ar
    33    14    15    1
    34    21    42    1
    35    21    43    1
    36    20    13    1
    37    20    40    1
    38     4     7   ar
    39     4     3   ar
    40     1    25    1
    41     1     2   ar
    42     3     2   ar
    43     3    27    1
    44     2    26    1
    45    34    17    1
    46    17    35    1
    47    17    16    1
    48    15    30    1
    49    15    16    1
    50    15    31    1
    51    32    16    1
    52    16    33    1
