@<TRIPOS>MOLECULE
3_7C
 39 41 0 0 0
SMALL
GASTEIGER

@<TRIPOS>ATOM
      1 C          -1.3516    4.1459    0.7164 C.ar    1  LIG11      -0.0611
      2 C          -0.0352    4.3751    1.0996 C.ar    1  LIG11      -0.0597
      3 C           0.8835    3.3213    1.0975 C.ar    1  LIG11      -0.0357
      4 C           0.5190    2.0361    0.7197 C.ar    1  LIG11       0.0713
      5 C          -0.8143    1.8089    0.3328 C.ar    1  LIG11       0.0012
      6 C          -1.7433    2.8649    0.3334 C.ar    1  LIG11      -0.0525
      7 N           1.4378    1.0546    0.7332 N.ar    1  LIG11      -0.2505
      8 C           1.0864   -0.2088    0.3548 C.ar    1  LIG11       0.0590
      9 C          -0.2202   -0.5165   -0.0295 C.ar    1  LIG11       0.0811
     10 C          -1.1735    0.5094   -0.0408 C.ar    1  LIG11      -0.0368
     11 C          -0.6392   -1.8899   -0.3831 C.2     1  LIG11       0.3407
     12 O          -0.2853   -2.8975    0.2034 O.2     1  LIG11      -0.2449
     13 O          -1.4595   -1.8376   -1.4636 O.3     1  LIG11      -0.4644
     14 C           2.2039   -1.2389    0.3986 C.3     1  LIG11       0.0022
     15 C           2.3958   -1.7617    1.8312 C.3     1  LIG11      -0.0448
     16 C           3.5148   -2.7990    1.9037 C.3     1  LIG11      -0.0525
     17 C           4.8242   -2.2597    1.3356 C.3     1  LIG11      -0.0530
     18 C           4.6460   -1.7229   -0.0816 C.3     1  LIG11      -0.0525
     19 C           3.5327   -0.6787   -0.1489 C.3     1  LIG11      -0.0448
     20 C          -1.9118   -3.1176   -1.9084 C.3     1  LIG11       0.0820
     21 H          -2.0707    4.9611    0.7164 H       1  LIG11       0.0618
     22 H           0.2828    5.3699    1.4011 H       1  LIG11       0.0618
     23 H           1.9119    3.5069    1.3987 H       1  LIG11       0.0639
     24 H          -2.7755    2.6942    0.0360 H       1  LIG11       0.0624
     25 H          -2.1997    0.2927   -0.3293 H       1  LIG11       0.0633
     26 H           1.9485   -2.0801   -0.2561 H       1  LIG11       0.0364
     27 H           1.4666   -2.2087    2.2044 H       1  LIG11       0.0272
     28 H           2.6320   -0.9300    2.5083 H       1  LIG11       0.0272
     29 H           3.6646   -3.1065    2.9448 H       1  LIG11       0.0265
     30 H           3.2166   -3.6953    1.3459 H       1  LIG11       0.0265
     31 H           5.1993   -1.4582    1.9839 H       1  LIG11       0.0265
     32 H           5.5811   -3.0521    1.3373 H       1  LIG11       0.0265
     33 H           5.5867   -1.2812   -0.4291 H       1  LIG11       0.0265
     34 H           4.4119   -2.5519   -0.7608 H       1  LIG11       0.0265
     35 H           3.8468    0.2047    0.4219 H       1  LIG11       0.0272
     36 H           3.4020   -0.3514   -1.1878 H       1  LIG11       0.0272
     37 H          -2.4960   -3.6108   -1.1252 H       1  LIG11       0.0661
     38 H          -1.0636   -3.7399   -2.2107 H       1  LIG11       0.0661
     39 H          -2.5570   -2.9653   -2.7780 H       1  LIG11       0.0661
@<TRIPOS>BOND
     1    39    20    1
     2    38    20    1
     3    20    13    1
     4    20    37    1
     5    13    11    1
     6    36    19    1
     7    34    18    1
     8    33    18    1
     9    11     9    1
    10    11    12    2
    11    25    10    1
    12    26    14    1
    13    19    18    1
    14    19    14    1
    15    19    35    1
    16    18    17    1
    17    10     9   ar
    18    10     5   ar
    19     9     8   ar
    20    24     6    1
    21     5     6   ar
    22     5     4   ar
    23     6     1   ar
    24     8    14    1
    25     8     7   ar
    26    14    15    1
    27    21     1    1
    28     1     2   ar
    29     4     7   ar
    30     4     3   ar
    31     3     2   ar
    32     3    23    1
    33     2    22    1
    34    17    32    1
    35    17    16    1
    36    17    31    1
    37    30    16    1
    38    15    16    1
    39    15    27    1
    40    15    28    1
    41    16    29    1
