@<TRIPOS>MOLECULE
3_9
 20 21 0 0 0
SMALL
GASTEIGER

@<TRIPOS>ATOM
      1 C          -1.3317    4.1721    0.7235 C.ar    1  LIG11      -0.0611
      2 C          -0.0156    4.3774    1.1040 C.ar    1  LIG11      -0.0597
      3 C           0.8776    3.3058    1.0933 C.ar    1  LIG11      -0.0357
      4 C           0.4920    2.0269    0.7138 C.ar    1  LIG11       0.0717
      5 C          -0.8472    1.7948    0.3294 C.ar    1  LIG11       0.0143
      6 C          -1.7446    2.8965    0.3384 C.ar    1  LIG11      -0.0518
      7 N           1.4301    1.0663    0.7302 N.ar    1  LIG11      -0.2549
      8 C           1.0840   -0.1809    0.3620 C.ar    1  LIG11       0.0290
      9 C          -0.1868   -0.5315   -0.0296 C.ar    1  LIG11      -0.0290
     10 C          -1.1691    0.4635   -0.0479 C.ar    1  LIG11       0.0694
     11 C          -2.5479    0.0732   -0.4470 C.2     1  LIG11       0.3375
     12 O          -3.5934    0.6051   -0.1297 O.2     1  LIG11      -0.2451
     13 O          -2.5486   -0.9980   -1.2648 O.3     1  LIG11      -0.4771
     14 H          -2.0395    4.9972    0.7245 H       1  LIG11       0.0618
     15 H           0.3222    5.3647    1.4073 H       1  LIG11       0.0618
     16 H           1.9109    3.4739    1.3899 H       1  LIG11       0.0639
     17 H          -2.7843    2.7765    0.0425 H       1  LIG11       0.0624
     18 H           1.8853   -0.9137    0.3955 H       1  LIG11       0.0830
     19 H          -0.4026   -1.5579   -0.3059 H       1  LIG11       0.0641
     20 H          -3.4984   -1.1389   -1.4647 H       1  LIG11       0.2954
@<TRIPOS>BOND
     1    20    13    1
     2    13    11    1
     3    11    12    2
     4    11    10    1
     5    19     9    1
     6    10     9   ar
     7    10     5   ar
     8     9     8   ar
     9    17     6    1
    10     5     6   ar
    11     5     4   ar
    12     6     1   ar
    13     8    18    1
    14     8     7   ar
    15     4     7   ar
    16     4     3   ar
    17     1    14    1
    18     1     2   ar
    19     3     2   ar
    20     3    16    1
    21     2    15    1
