@<TRIPOS>MOLECULE
4_2D
 47 51 0 0 0
SMALL
GASTEIGER

@<TRIPOS>ATOM
      1 C          -1.3164    4.1750    0.7334 C.ar    1  LIG11      -0.0611
      2 C          -0.0019    4.3773    1.1071 C.ar    1  LIG11      -0.0597
      3 C           0.8802    3.3012    1.0892 C.ar    1  LIG11      -0.0357
      4 C           0.4845    2.0268    0.7076 C.ar    1  LIG11       0.0721
      5 C          -0.8624    1.7772    0.3154 C.ar    1  LIG11       0.0041
      6 C          -1.7358    2.8995    0.3457 C.ar    1  LIG11      -0.0523
      7 N           1.4384    1.0930    0.7392 N.ar    1  LIG11      -0.2420
      8 C           1.0939   -0.1611    0.3749 C.ar    1  LIG11       0.1275
      9 C          -0.1808   -0.5281   -0.0251 C.ar    1  LIG11      -0.0268
     10 C          -1.2111    0.4303   -0.0704 C.ar    1  LIG11      -0.0298
     11 C           2.1866   -1.1846    0.4223 C.2     1  LIG11       0.2757
     12 O           1.9965   -2.3596    0.1206 O.2     1  LIG11      -0.2672
     13 N           3.4134   -0.6840    0.8386 N.am    1  LIG11      -0.2483
     14 C          -2.6310   -0.0154   -0.5239 C.3     1  LIG11      -0.0028
     15 C          -2.7271   -1.5453   -0.8869 C.3     1  LIG11      -0.0405
     16 C          -4.1436   -1.9546   -1.3315 C.3     1  LIG11      -0.0397
     17 C          -4.5409   -1.1422   -2.5696 C.3     1  LIG11      -0.0473
     18 C          -4.4951    0.3544   -2.2383 C.3     1  LIG11      -0.0397
     19 C          -3.0650    0.7364   -1.8185 C.3     1  LIG11      -0.0405
     20 N           4.5235   -1.5389    0.9831 N.3     1  LIG11      -0.2541
     21 C          -5.1338   -1.6679   -0.1964 C.3     1  LIG11      -0.0473
     22 C          -5.0933   -0.1760    0.1559 C.3     1  LIG11      -0.0397
     23 C          -5.4647    0.6548   -1.0834 C.3     1  LIG11      -0.0473
     24 C          -3.6731    0.1971    0.6155 C.3     1  LIG11      -0.0405
     25 H          -2.0220    5.0022    0.7405 H       1  LIG11       0.0618
     26 H           0.3417    5.3619    1.4116 H       1  LIG11       0.0618
     27 H           1.9146    3.4662    1.3847 H       1  LIG11       0.0639
     28 H          -2.7793    2.8137    0.0658 H       1  LIG11       0.0624
     29 H          -0.3334   -1.5677   -0.2933 H       1  LIG11       0.0643
     30 H           3.4652    0.2985    1.1158 H       1  LIG11       0.1691
     31 H          -2.4472   -2.1611   -0.0214 H       1  LIG11       0.0276
     32 H          -2.0282   -1.7896   -1.6982 H       1  LIG11       0.0276
     33 H          -4.1597   -3.0236   -1.5723 H       1  LIG11       0.0301
     34 H          -5.5482   -1.4247   -2.8992 H       1  LIG11       0.0271
     35 H          -3.8603   -1.3650   -3.4004 H       1  LIG11       0.0271
     36 H          -4.7842    0.9336   -3.1226 H       1  LIG11       0.0301
     37 H          -3.0277    1.8215   -1.7080 H       1  LIG11       0.0276
     38 H          -2.3662    0.5039   -2.6340 H       1  LIG11       0.0276
     39 H           4.8261   -1.8017    0.0401 H       1  LIG11       0.1405
     40 H           4.1702   -2.4221    1.3710 H       1  LIG11       0.1405
     41 H          -4.8810   -2.2701    0.6848 H       1  LIG11       0.0271
     42 H          -6.1480   -1.9566   -0.4984 H       1  LIG11       0.0271
     43 H          -5.8051    0.0283    0.9638 H       1  LIG11       0.0301
     44 H          -6.4918    0.4231   -1.3913 H       1  LIG11       0.0271
     45 H          -5.4391    1.7241   -0.8401 H       1  LIG11       0.0271
     46 H          -3.6985    1.2268    0.9766 H       1  LIG11       0.0276
     47 H          -3.3963   -0.4095    1.4889 H       1  LIG11       0.0276
@<TRIPOS>BOND
     1    35    17    1
     2    36    18    1
     3    34    17    1
     4    38    19    1
     5    17    18    1
     6    17    16    1
     7    18    19    1
     8    18    23    1
     9    19    37    1
    10    19    14    1
    11    32    15    1
    12    33    16    1
    13    44    23    1
    14    16    15    1
    15    16    21    1
    16    23    45    1
    17    23    22    1
    18    15    14    1
    19    15    31    1
    20    14    10    1
    21    14    24    1
    22    42    21    1
    23    29     9    1
    24    21    22    1
    25    21    41    1
    26    10     9   ar
    27    10     5   ar
    28     9     8   ar
    29    39    20    1
    30    28     6    1
    31    12    11    2
    32    22    24    1
    33    22    43    1
    34     5     6   ar
    35     5     4   ar
    36     6     1   ar
    37     8    11    1
    38     8     7   ar
    39    11    13   am
    40    24    46    1
    41    24    47    1
    42     4     7   ar
    43     4     3   ar
    44     1    25    1
    45     1     2   ar
    46    13    20    1
    47    13    30    1
    48    20    40    1
    49     3     2   ar
    50     3    27    1
    51     2    26    1
