@<TRIPOS>MOLECULE
4_2F
 49 52 0 0 0
SMALL
GASTEIGER

@<TRIPOS>ATOM
      1 C          -1.3449    4.1503    0.7213 C.ar    1  LIG11      -0.0608
      2 C          -0.0314    4.3831    1.0995 C.ar    1  LIG11      -0.0563
      3 C           0.9076    3.3395    1.1073 C.ar    1  LIG11      -0.0183
      4 C           0.5179    2.0417    0.7195 C.ar    1  LIG11       0.0755
      5 C          -0.8269    1.7911    0.3262 C.ar    1  LIG11       0.0041
      6 C          -1.7367    2.8716    0.3421 C.ar    1  LIG11      -0.0523
      7 N           1.4398    1.0645    0.7300 N.ar    1  LIG11      -0.2417
      8 C           1.0683   -0.1866    0.3656 C.ar    1  LIG11       0.1275
      9 C          -0.2106   -0.5286   -0.0297 C.ar    1  LIG11      -0.0271
     10 C          -1.1945    0.4644   -0.0647 C.ar    1  LIG11      -0.0329
     11 C           2.1416   -1.2292    0.4119 C.2     1  LIG11       0.2757
     12 O           1.9315   -2.3989    0.1030 O.2     1  LIG11      -0.2672
     13 N           3.3767   -0.7497    0.8283 N.am    1  LIG11      -0.2483
     14 C          -2.6236    0.1314   -0.4946 C.3     1  LIG11      -0.0152
     15 C          -3.5568   -0.0455    0.7103 C.3     1  LIG11      -0.0462
     16 C          -3.4088   -1.5124    1.0910 C.3     1  LIG11      -0.0525
     17 C          -3.1889   -2.2490   -0.2261 C.3     1  LIG11      -0.0525
     18 C          -2.8501   -1.1800   -1.2674 C.3     1  LIG11      -0.0462
     19 C           2.3491    3.5828    1.5322 C.3     1  LIG11      -0.0138
     20 N           4.4945   -1.6039    0.8881 N.3     1  LIG11      -0.2541
     21 C           2.6754    3.0115    2.9201 C.3     1  LIG11      -0.0461
     22 C           3.9473    3.7317    3.3740 C.3     1  LIG11      -0.0525
     23 C           4.1723    4.8701    2.3827 C.3     1  LIG11      -0.0525
     24 C           2.8380    5.0305    1.6685 C.3     1  LIG11      -0.0461
     25 H          -2.0659    4.9642    0.7227 H       1  LIG11       0.0618
     26 H           0.2402    5.3937    1.3896 H       1  LIG11       0.0621
     27 H          -2.7775    2.7365    0.0600 H       1  LIG11       0.0624
     28 H          -0.4149   -1.5595   -0.2967 H       1  LIG11       0.0643
     29 H           3.4636    0.2485    1.0308 H       1  LIG11       0.1691
     30 H          -2.9711    0.9439   -1.1437 H       1  LIG11       0.0349
     31 H          -4.5928    0.1448    0.4023 H       1  LIG11       0.0271
     32 H          -3.3341    0.6146    1.5541 H       1  LIG11       0.0271
     33 H          -4.2847   -1.8865    1.6297 H       1  LIG11       0.0265
     34 H          -2.5386   -1.6481    1.7439 H       1  LIG11       0.0265
     35 H          -4.0905   -2.7952   -0.5248 H       1  LIG11       0.0265
     36 H          -2.3840   -2.9849   -0.1276 H       1  LIG11       0.0265
     37 H          -3.7228   -1.0568   -1.9228 H       1  LIG11       0.0271
     38 H          -2.0176   -1.4700   -1.9156 H       1  LIG11       0.0271
     39 H           3.0005    3.1044    0.7855 H       1  LIG11       0.0349
     40 H           4.4810   -2.1721    0.0328 H       1  LIG11       0.1405
     41 H           4.3091   -2.2899    1.6268 H       1  LIG11       0.1405
     42 H           2.8192    1.9264    2.9043 H       1  LIG11       0.0271
     43 H           1.8640    3.2195    3.6293 H       1  LIG11       0.0271
     44 H           4.8078    3.0542    3.3847 H       1  LIG11       0.0265
     45 H           3.8202    4.1165    4.3918 H       1  LIG11       0.0265
     46 H           4.9509    4.5879    1.6639 H       1  LIG11       0.0265
     47 H           4.4925    5.7922    2.8767 H       1  LIG11       0.0265
     48 H           2.9433    5.5307    0.7008 H       1  LIG11       0.0271
     49 H           2.1735    5.6337    2.2977 H       1  LIG11       0.0271
@<TRIPOS>BOND
     1    37    18    1
     2    38    18    1
     3    18    14    1
     4    18    17    1
     5    30    14    1
     6    35    17    1
     7    14    10    1
     8    14    15    1
     9    28     9    1
    10    17    36    1
    11    17    16    1
    12    10     9   ar
    13    10     5   ar
    14     9     8   ar
    15    40    20    1
    16    27     6    1
    17    12    11    2
    18     5     6   ar
    19     5     4   ar
    20     6     1   ar
    21     8    11    1
    22     8     7   ar
    23    31    15    1
    24    11    13   am
    25    48    24    1
    26    15    16    1
    27    15    32    1
    28     4     7   ar
    29     4     3   ar
    30     1    25    1
    31     1     2   ar
    32    39    19    1
    33    13    20    1
    34    13    29    1
    35    20    41    1
    36    16    33    1
    37    16    34    1
    38     2     3   ar
    39     2    26    1
    40     3    19    1
    41    19    24    1
    42    19    21    1
    43    46    23    1
    44    24    49    1
    45    24    23    1
    46    23    47    1
    47    23    22    1
    48    42    21    1
    49    21    22    1
    50    21    43    1
    51    22    44    1
    52    22    45    1
