@<TRIPOS>MOLECULE
4_2G
 55 58 0 0 0
SMALL
GASTEIGER
Energy = 0

@<TRIPOS>ATOM
      1 C          -1.2973    4.1941    0.7634 C.ar    1  LIG1       -0.0576
      2 C           0.0403    4.3823    1.0510 C.ar    1  LIG1       -0.0595
      3 C           0.8862    3.2870    1.0481 C.ar    1  LIG1       -0.0357
      4 C           0.4523    2.0206    0.7020 C.ar    1  LIG1        0.0724
      5 C          -0.9026    1.7826    0.3091 C.ar    1  LIG1        0.0073
      6 C          -1.8104    2.9149    0.4493 C.ar    1  LIG1       -0.0348
      7 N           1.4129    1.0924    0.7713 N.ar    1  LIG1       -0.2420
      8 C           1.0973   -0.1738    0.4340 C.ar    1  LIG1        0.1275
      9 C          -0.1409   -0.5421   -0.0402 C.ar    1  LIG1       -0.0271
     10 C          -1.1490    0.4330   -0.1710 C.ar    1  LIG1       -0.0327
     11 C           2.1873   -1.1902    0.5642 C.2     1  LIG1        0.2757
     12 O           2.0161   -2.3721    0.2781 O.2     1  LIG1       -0.2672
     13 N           3.3879   -0.6758    1.0357 N.am    1  LIG1       -0.2483
     14 C          -2.4188   -0.0186   -0.8932 C.3     1  LIG1       -0.0152
     15 C          -2.1499   -0.7284   -2.2423 C.3     1  LIG1       -0.0462
     16 C          -3.4611   -1.0939   -2.9396 C.3     1  LIG1       -0.0525
     17 C          -4.3517   -1.9497   -2.0431 C.3     1  LIG1       -0.0530
     18 C          -4.6015   -1.2869   -0.6911 C.3     1  LIG1       -0.0525
     19 C          -3.2949   -0.9099    0.0053 C.3     1  LIG1       -0.0462
     20 N           4.4953   -1.5200    1.2465 N.3     1  LIG1       -0.2541
     21 C          -3.3347    2.8193    0.3535 C.3     1  LIG1       -0.0152
     22 C          -4.0764    3.4324    1.5659 C.3     1  LIG1       -0.0462
     23 C          -5.5884    3.2420    1.4361 C.3     1  LIG1       -0.0525
     24 C          -6.1148    3.8219    0.1260 C.3     1  LIG1       -0.0530
     25 C          -5.3730    3.2590   -1.0833 C.3     1  LIG1       -0.0525
     26 C          -3.8609    3.4372   -0.9543 C.3     1  LIG1       -0.0462
     27 H          -1.9515    5.0625    0.8093 H       1  LIG1        0.0621
     28 H           0.4177    5.3678    1.3088 H       1  LIG1        0.0618
     29 H           1.9307    3.4345    1.3173 H       1  LIG1        0.0639
     30 H          -0.3063   -1.5767   -0.3267 H       1  LIG1        0.0643
     31 H           3.4267    0.3158    1.2806 H       1  LIG1        0.1691
     32 H          -2.9839    0.8612   -1.1925 H       1  LIG1        0.0349
     33 H          -1.5683   -1.6470   -2.1041 H       1  LIG1        0.0271
     34 H          -1.5591   -0.0759   -2.8971 H       1  LIG1        0.0271
     35 H          -3.9953   -0.1776   -3.2195 H       1  LIG1        0.0265
     36 H          -3.2458   -1.6342   -3.8684 H       1  LIG1        0.0265
     37 H          -5.3082   -2.1365   -2.5441 H       1  LIG1        0.0265
     38 H          -3.8776   -2.9265   -1.8862 H       1  LIG1        0.0265
     39 H          -5.2117   -0.3865   -0.8328 H       1  LIG1        0.0265
     40 H          -5.1774   -1.9643   -0.0507 H       1  LIG1        0.0265
     41 H          -3.5221   -0.4047    0.9514 H       1  LIG1        0.0271
     42 H          -2.7557   -1.8283    0.2715 H       1  LIG1        0.0271
     43 H           4.8064   -1.8435    0.3251 H       1  LIG1        0.1405
     44 H           4.1374   -2.3761    1.6866 H       1  LIG1        0.1405
     45 H          -3.6233    1.7718    0.4005 H       1  LIG1        0.0349
     46 H          -3.8737    4.5052    1.6608 H       1  LIG1        0.0271
     47 H          -3.7288    2.9619    2.4940 H       1  LIG1        0.0271
     48 H          -5.8289    2.1729    1.4864 H       1  LIG1        0.0265
     49 H          -6.0938    3.7230    2.2812 H       1  LIG1        0.0265
     50 H          -7.1857    3.6093    0.0330 H       1  LIG1        0.0265
     51 H          -6.0064    4.9134    0.1425 H       1  LIG1        0.0265
     52 H          -5.7254    3.7557   -1.9944 H       1  LIG1        0.0265
     53 H          -5.6061    2.1927   -1.1911 H       1  LIG1        0.0265
     54 H          -3.3681    2.9861   -1.8235 H       1  LIG1        0.0271
     55 H          -3.6246    4.5085   -0.9910 H       1  LIG1        0.0271
@<TRIPOS>BOND
     1    36    16    1
     2    35    16    1
     3    16    15    1
     4    16    17    1
     5    34    15    1
     6    37    17    1
     7    15    33    1
     8    15    14    1
     9    17    38    1
    10    17    18    1
    11    52    25    1
    12    54    26    1
    13    32    14    1
    14    53    25    1
    15    25    26    1
    16    25    24    1
    17    55    26    1
    18    26    21    1
    19    14    10    1
    20    14    19    1
    21    39    18    1
    22    18    40    1
    23    18    19    1
    24    30     9    1
    25    10     9   ar
    26    10     5   ar
    27     9     8   ar
    28    19    42    1
    29    19    41    1
    30    50    24    1
    31    24    51    1
    32    24    23    1
    33    12    11    2
    34     5     6   ar
    35     5     4   ar
    36    43    20    1
    37    21    45    1
    38    21     6    1
    39    21    22    1
    40     8    11    1
    41     8     7   ar
    42     6     1   ar
    43    11    13   am
    44     4     7   ar
    45     4     3   ar
    46     1    27    1
    47     1     2   ar
    48    13    20    1
    49    13    31    1
    50     3     2   ar
    51     3    29    1
    52     2    28    1
    53    20    44    1
    54    23    48    1
    55    23    22    1
    56    23    49    1
    57    22    46    1
    58    22    47    1
