@<TRIPOS>MOLECULE
4_3D
 55 58 0 0 0
SMALL
GASTEIGER
Energy = 0

@<TRIPOS>ATOM
      1 C          -1.3193    4.1791    0.7137 C.ar    1  LIG1       -0.0611
      2 C          -0.0072    4.3802    1.1029 C.ar    1  LIG1       -0.0597
      3 C           0.8764    3.3035    1.0993 C.ar    1  LIG1       -0.0357
      4 C           0.4823    2.0277    0.7207 C.ar    1  LIG1        0.0716
      5 C          -0.8553    1.7844    0.3341 C.ar    1  LIG1        0.0046
      6 C          -1.7364    2.9017    0.3335 C.ar    1  LIG1       -0.0523
      7 N           1.4223    1.0790    0.7413 N.ar    1  LIG1       -0.2506
      8 C           1.1192   -0.1800    0.3535 C.ar    1  LIG1        0.0575
      9 C          -0.1790   -0.5250   -0.0506 C.ar    1  LIG1        0.0635
     10 C          -1.2143    0.4403   -0.0315 C.ar    1  LIG1       -0.0212
     11 C          -0.3851   -1.8984   -0.5395 C.2     1  LIG1        0.2594
     12 O          -0.4877   -2.8370    0.2416 O.2     1  LIG1       -0.2688
     13 N          -0.3947   -2.0183   -1.9213 N.am    1  LIG1       -0.2495
     14 N          -0.5102   -3.2954   -2.5045 N.3     1  LIG1       -0.2541
     15 C           2.2623   -1.1924    0.4205 C.3     1  LIG1        0.0021
     16 C           2.3416   -1.8558    1.8066 C.3     1  LIG1       -0.0448
     17 C           3.0348   -0.9915    2.8574 C.3     1  LIG1       -0.0525
     18 C           4.4219   -0.5623    2.3962 C.3     1  LIG1       -0.0530
     19 C           4.3684    0.1774    1.0658 C.3     1  LIG1       -0.0525
     20 C           3.6305   -0.6196   -0.0113 C.3     1  LIG1       -0.0448
     21 C          -2.6795    0.1299   -0.3722 C.3     1  LIG1       -0.0145
     22 C          -3.2636   -1.2237    0.0800 C.3     1  LIG1       -0.0462
     23 C          -4.7716   -1.2784   -0.1767 C.3     1  LIG1       -0.0525
     24 C          -5.0870   -1.0278   -1.6496 C.3     1  LIG1       -0.0530
     25 C          -4.4852    0.2846   -2.1448 C.3     1  LIG1       -0.0525
     26 C          -2.9848    0.3754   -1.8607 C.3     1  LIG1       -0.0462
     27 H          -2.0212    5.0092    0.7025 H       1  LIG1        0.0618
     28 H           0.3356    5.3663    1.4040 H       1  LIG1        0.0618
     29 H           1.9100    3.4644    1.3994 H       1  LIG1        0.0639
     30 H          -2.7729    2.8043    0.0222 H       1  LIG1        0.0624
     31 H          -0.2099   -1.2146   -2.5201 H       1  LIG1        0.1690
     32 H          -1.4608   -3.6310   -2.3158 H       1  LIG1        0.1405
     33 H           0.0713   -3.9342   -1.9469 H       1  LIG1        0.1405
     34 H           2.0522   -1.9811   -0.3117 H       1  LIG1        0.0364
     35 H           2.9059   -2.7928    1.7088 H       1  LIG1        0.0272
     36 H           1.3445   -2.1329    2.1683 H       1  LIG1        0.0272
     37 H           2.4264   -0.1076    3.0806 H       1  LIG1        0.0265
     38 H           3.1217   -1.5572    3.7922 H       1  LIG1        0.0265
     39 H           4.8815    0.0797    3.1561 H       1  LIG1        0.0265
     40 H           5.0637   -1.4464    2.2965 H       1  LIG1        0.0265
     41 H           3.8950    1.1539    1.2111 H       1  LIG1        0.0265
     42 H           5.3896    0.3843    0.7243 H       1  LIG1        0.0265
     43 H           4.2736   -1.4657   -0.2901 H       1  LIG1        0.0272
     44 H           3.5238   -0.0065   -0.9147 H       1  LIG1        0.0272
     45 H          -3.2806    0.8431    0.2054 H       1  LIG1        0.0349
     46 H          -3.0650   -1.3872    1.1456 H       1  LIG1        0.0271
     47 H          -2.8232   -2.0580   -0.4694 H       1  LIG1        0.0271
     48 H          -5.1599   -2.2592    0.1203 H       1  LIG1        0.0265
     49 H          -5.2811   -0.5310    0.4434 H       1  LIG1        0.0265
     50 H          -4.6939   -1.8565   -2.2516 H       1  LIG1        0.0265
     51 H          -6.1728   -1.0140   -1.7968 H       1  LIG1        0.0265
     52 H          -4.6620    0.3874   -3.2214 H       1  LIG1        0.0265
     53 H          -4.9965    1.1241   -1.6574 H       1  LIG1        0.0265
     54 H          -2.4589   -0.3558   -2.4840 H       1  LIG1        0.0271
     55 H          -2.6258    1.3632   -2.1736 H       1  LIG1        0.0271
@<TRIPOS>BOND
     1    52    25    1
     2    31    13    1
     3    14    32    1
     4    14    33    1
     5    14    13    1
     6    54    26    1
     7    50    24    1
     8    55    26    1
     9    25    26    1
    10    25    53    1
    11    25    24    1
    12    13    11   am
    13    26    21    1
    14    51    24    1
    15    24    23    1
    16    44    20    1
    17    11     9    1
    18    11    12    2
    19    47    22    1
    20    21    10    1
    21    21    22    1
    22    21    45    1
    23    34    15    1
    24    43    20    1
    25    23    22    1
    26    23    48    1
    27    23    49    1
    28     9    10   ar
    29     9     8   ar
    30    10     5   ar
    31    20    15    1
    32    20    19    1
    33    30     6    1
    34    22    46    1
    35     6     5   ar
    36     6     1   ar
    37     5     4   ar
    38     8    15    1
    39     8     7   ar
    40    15    16    1
    41    27     1    1
    42     1     2   ar
    43     4     7   ar
    44     4     3   ar
    45    42    19    1
    46    19    41    1
    47    19    18    1
    48     3     2   ar
    49     3    29    1
    50     2    28    1
    51    35    16    1
    52    16    36    1
    53    16    17    1
    54    40    18    1
    55    18    17    1
    56    18    39    1
    57    17    37    1
    58    17    38    1
