@<TRIPOS>MOLECULE
4_4C
 39 41 0 0 0
SMALL
GASTEIGER

@<TRIPOS>ATOM
      1 C          -1.3397    4.1688    0.7257 C.ar    1  LIG11      -0.0611
      2 C          -0.0215    4.3780    1.1018 C.ar    1  LIG11      -0.0597
      3 C           0.8773    3.3093    1.0906 C.ar    1  LIG11      -0.0357
      4 C           0.4951    2.0288    0.7130 C.ar    1  LIG11       0.0720
      5 C          -0.8403    1.8030    0.3314 C.ar    1  LIG11       0.0125
      6 C          -1.7484    2.8930    0.3415 C.ar    1  LIG11      -0.0518
      7 N           1.4266    1.0590    0.7242 N.ar    1  LIG11      -0.2513
      8 C           1.0917   -0.2024    0.3687 C.ar    1  LIG11       0.0458
      9 C          -0.1936   -0.5285   -0.0278 C.ar    1  LIG11      -0.0273
     10 C          -1.1587    0.4819   -0.0523 C.ar    1  LIG11       0.0488
     11 C          -2.5285    0.1097   -0.4799 C.2     1  LIG11       0.2581
     12 O          -3.5077    0.3767    0.2077 O.2     1  LIG11      -0.2689
     13 N          -2.6001   -0.5482   -1.7020 N.am    1  LIG11      -0.2495
     14 N          -3.8623   -0.8949   -2.2266 N.3     1  LIG11      -0.2541
     15 C           2.2011   -1.2337    0.4343 C.3     1  LIG11       0.0014
     16 C           2.5083   -1.8375   -0.9460 C.3     1  LIG11      -0.0448
     17 C           3.6373   -2.8636   -0.8674 C.3     1  LIG11      -0.0525
     18 C           3.3412   -3.9491    0.1634 C.3     1  LIG11      -0.0530
     19 C           3.0370   -3.3554    1.5358 C.3     1  LIG11      -0.0525
     20 C           1.9050   -2.3317    1.4690 C.3     1  LIG11      -0.0448
     21 H          -2.0509    4.9909    0.7334 H       1  LIG11       0.0618
     22 H           0.3130    5.3664    1.4057 H       1  LIG11       0.0618
     23 H           1.9101    3.4808    1.3869 H       1  LIG11       0.0639
     24 H          -2.7895    2.7528    0.0559 H       1  LIG11       0.0624
     25 H          -0.4507   -1.5493   -0.2914 H       1  LIG11       0.0643
     26 H          -1.7820   -0.6270   -2.3037 H       1  LIG11       0.1690
     27 H          -4.4663   -0.0695   -2.1263 H       1  LIG11       0.1405
     28 H          -4.2864   -1.5630   -1.5730 H       1  LIG11       0.1405
     29 H           3.1096   -0.7110    0.7680 H       1  LIG11       0.0364
     30 H           2.7871   -1.0439   -1.6504 H       1  LIG11       0.0272
     31 H           1.6168   -2.3242   -1.3615 H       1  LIG11       0.0272
     32 H           3.7877   -3.3213   -1.8517 H       1  LIG11       0.0265
     33 H           4.5739   -2.3563   -0.6049 H       1  LIG11       0.0265
     34 H           2.4855   -4.5475   -0.1728 H       1  LIG11       0.0265
     35 H           4.1970   -4.6294    0.2380 H       1  LIG11       0.0265
     36 H           2.7674   -4.1571    2.2326 H       1  LIG11       0.0265
     37 H           3.9394   -2.8759    1.9346 H       1  LIG11       0.0265
     38 H           0.9713   -2.8528    1.2221 H       1  LIG11       0.0272
     39 H           1.7599   -1.8853    2.4607 H       1  LIG11       0.0272
@<TRIPOS>BOND
     1    26    13    1
     2    14    27    1
     3    14    13    1
     4    14    28    1
     5    32    17    1
     6    13    11   am
     7    30    16    1
     8    31    16    1
     9    16    17    1
    10    16    15    1
    11    17    33    1
    12    17    18    1
    13    11    10    1
    14    11    12    2
    15    25     9    1
    16    34    18    1
    17    10     9   ar
    18    10     5   ar
    19     9     8   ar
    20    24     6    1
    21    18    35    1
    22    18    19    1
    23     5     6   ar
    24     5     4   ar
    25     6     1   ar
    26     8    15    1
    27     8     7   ar
    28    15    29    1
    29    15    20    1
    30     4     7   ar
    31     4     3   ar
    32     1    21    1
    33     1     2   ar
    34     3     2   ar
    35     3    23    1
    36     2    22    1
    37    38    20    1
    38    20    19    1
    39    20    39    1
    40    19    37    1
    41    19    36    1
