@<TRIPOS>MOLECULE
4_5B
 39 41 0 0 0
SMALL
GASTEIGER
Energy = 0

@<TRIPOS>ATOM
      1 C          -1.3385    4.1611    0.7307 C.ar    1  LIG1       -0.0611
      2 C          -0.0196    4.3755    1.1014 C.ar    1  LIG1       -0.0597
      3 C           0.8819    3.3102    1.0875 C.ar    1  LIG1       -0.0357
      4 C           0.5011    2.0301    0.7099 C.ar    1  LIG1        0.0716
      5 C          -0.8376    1.7984    0.3238 C.ar    1  LIG1        0.0040
      6 C          -1.7466    2.8842    0.3459 C.ar    1  LIG1       -0.0523
      7 N           1.4336    1.0648    0.7275 N.ar    1  LIG1       -0.2513
      8 C           1.0917   -0.1946    0.3806 C.ar    1  LIG1        0.0453
      9 C          -0.1966   -0.5180   -0.0259 C.ar    1  LIG1       -0.0359
     10 C          -1.1807    0.4792   -0.0645 C.ar    1  LIG1       -0.0277
     11 C          -2.5695    0.1040   -0.5369 C.3     1  LIG1        0.0510
     12 C          -2.9705    0.7180   -1.8668 C.2     1  LIG1        0.2306
     13 O          -4.0767    1.2292   -2.0436 O.2     1  LIG1       -0.2742
     14 N          -2.0280    0.5979   -2.8798 N.am    1  LIG1       -0.2533
     15 N          -2.3014    1.1442   -4.1522 N.3     1  LIG1       -0.2544
     16 C           2.1665   -1.2663    0.3915 C.3     1  LIG1        0.0014
     17 C           2.8858   -1.3697   -0.9548 C.3     1  LIG1       -0.0448
     18 C           3.9722   -0.3025   -0.8938 C.3     1  LIG1       -0.0524
     19 C           4.3550   -0.1865    0.5800 C.3     1  LIG1       -0.0524
     20 C           3.3216   -0.9986    1.3633 C.3     1  LIG1       -0.0448
     21 H          -2.0512    4.9820    0.7405 H       1  LIG1        0.0618
     22 H           0.3129    5.3649    1.4038 H       1  LIG1        0.0618
     23 H           1.9149    3.4827    1.3818 H       1  LIG1        0.0639
     24 H          -2.7898    2.7523    0.0670 H       1  LIG1        0.0624
     25 H          -0.4294   -1.5405   -0.3119 H       1  LIG1        0.0639
     26 H          -3.2980    0.4024    0.2266 H       1  LIG1        0.0408
     27 H          -2.6658   -0.9840   -0.6399 H       1  LIG1        0.0408
     28 H          -1.0822    0.2769   -2.6783 H       1  LIG1        0.1687
     29 H          -3.2963    0.9686   -4.3449 H       1  LIG1        0.1405
     30 H          -2.2592    2.1650   -4.0644 H       1  LIG1        0.1405
     31 H           1.6925   -2.2208    0.6520 H       1  LIG1        0.0364
     32 H           2.2285   -1.2354   -1.8199 H       1  LIG1        0.0272
     33 H           3.3572   -2.3567   -1.0432 H       1  LIG1        0.0272
     34 H           3.5818    0.6569   -1.2532 H       1  LIG1        0.0265
     35 H           4.8309   -0.5606   -1.5212 H       1  LIG1        0.0265
     36 H           4.3511    0.8634    0.8927 H       1  LIG1        0.0265
     37 H           5.3637   -0.5740    0.7599 H       1  LIG1        0.0265
     38 H           3.0151   -0.4969    2.2870 H       1  LIG1        0.0272
     39 H           3.7773   -1.9548    1.6516 H       1  LIG1        0.0272
@<TRIPOS>BOND
     1    29    15    1
     2    15    30    1
     3    15    14    1
     4    14    28    1
     5    14    12   am
     6    13    12    2
     7    12    11    1
     8    32    17    1
     9    35    18    1
    10    34    18    1
    11    33    17    1
    12    17    18    1
    13    17    16    1
    14    18    19    1
    15    27    11    1
    16    11    10    1
    17    11    26    1
    18    25     9    1
    19    10     9   ar
    20    10     5   ar
    21     9     8   ar
    22    24     6    1
    23     5     6   ar
    24     5     4   ar
    25     6     1   ar
    26     8    16    1
    27     8     7   ar
    28    16    31    1
    29    16    20    1
    30    19    37    1
    31    19    36    1
    32    19    20    1
    33     4     7   ar
    34     4     3   ar
    35     1    21    1
    36     1     2   ar
    37     3     2   ar
    38     3    23    1
    39     2    22    1
    40    20    39    1
    41    20    38    1
