@<TRIPOS>MOLECULE
4_5D
 50 54 0 0 0
SMALL
GASTEIGER
Energy = 0

@<TRIPOS>ATOM
      1 C          -1.3386    4.1628    0.7297 C.ar    1  LIG1       -0.0611
      2 C          -0.0200    4.3758    1.1018 C.ar    1  LIG1       -0.0597
      3 C           0.8804    3.3094    1.0884 C.ar    1  LIG1       -0.0357
      4 C           0.4989    2.0295    0.7098 C.ar    1  LIG1        0.0716
      5 C          -0.8386    1.7999    0.3237 C.ar    1  LIG1        0.0040
      6 C          -1.7472    2.8863    0.3447 C.ar    1  LIG1       -0.0523
      7 N           1.4303    1.0624    0.7278 N.ar    1  LIG1       -0.2510
      8 C           1.0996   -0.2001    0.3761 C.ar    1  LIG1        0.0484
      9 C          -0.1954   -0.5164   -0.0232 C.ar    1  LIG1       -0.0356
     10 C          -1.1808    0.4813   -0.0618 C.ar    1  LIG1       -0.0277
     11 C          -2.5708    0.1039   -0.5293 C.3     1  LIG1        0.0510
     12 C          -2.9738    0.7108   -1.8617 C.2     1  LIG1        0.2306
     13 O          -4.0790    1.2243   -2.0385 O.2     1  LIG1       -0.2742
     14 N          -2.0347    0.5810   -2.8766 N.am    1  LIG1       -0.2533
     15 N          -2.3098    1.1207   -4.1514 N.3     1  LIG1       -0.2544
     16 C           2.1995   -1.2640    0.4270 C.3     1  LIG1        0.0137
     17 C           3.5568   -0.6687    0.9113 C.3     1  LIG1       -0.0391
     18 C           4.6535   -1.7459    0.9569 C.3     1  LIG1       -0.0397
     19 C           4.2268   -2.8602    1.9238 C.3     1  LIG1       -0.0473
     20 C           2.9075   -3.4873    1.4497 C.3     1  LIG1       -0.0397
     21 C           1.8139   -2.4051    1.4089 C.3     1  LIG1       -0.0391
     22 C           4.8422   -2.3339   -0.4493 C.3     1  LIG1       -0.0473
     23 C           3.5262   -2.9582   -0.9363 C.3     1  LIG1       -0.0397
     24 C           3.0988   -4.0678    0.0387 C.3     1  LIG1       -0.0473
     25 C           2.4339   -1.8750   -0.9824 C.3     1  LIG1       -0.0391
     26 H          -2.0505    4.9843    0.7389 H       1  LIG1        0.0618
     27 H           0.3134    5.3647    1.4048 H       1  LIG1        0.0618
     28 H           1.9132    3.4808    1.3838 H       1  LIG1        0.0639
     29 H          -2.7902    2.7547    0.0647 H       1  LIG1        0.0624
     30 H          -0.4429   -1.5363   -0.3043 H       1  LIG1        0.0639
     31 H          -3.2978    0.4067    0.2340 H       1  LIG1        0.0408
     32 H          -2.6681   -0.9846   -0.6261 H       1  LIG1        0.0408
     33 H          -1.0886    0.2611   -2.6749 H       1  LIG1        0.1687
     34 H          -3.3030    0.9376   -4.3451 H       1  LIG1        0.1405
     35 H          -2.2751    2.1421   -4.0670 H       1  LIG1        0.1405
     36 H           3.4452   -0.2264    1.9106 H       1  LIG1        0.0277
     37 H           3.8782    0.1428    0.2442 H       1  LIG1        0.0277
     38 H           5.5941   -1.3004    1.2997 H       1  LIG1        0.0301
     39 H           4.1071   -2.4542    2.9358 H       1  LIG1        0.0271
     40 H           5.0083   -3.6280    1.9794 H       1  LIG1        0.0271
     41 H           2.6099   -4.2850    2.1395 H       1  LIG1        0.0301
     42 H           1.6558   -1.9993    2.4171 H       1  LIG1        0.0277
     43 H           0.8664   -2.8738    1.1143 H       1  LIG1        0.0277
     44 H           5.6345   -3.0924   -0.4352 H       1  LIG1        0.0271
     45 H           5.1653   -1.5492   -1.1444 H       1  LIG1        0.0271
     46 H           3.6674   -3.3810   -1.9373 H       1  LIG1        0.0301
     47 H           3.8582   -4.8592    0.0601 H       1  LIG1        0.0271
     48 H           2.1662   -4.5313   -0.3059 H       1  LIG1        0.0271
     49 H           2.7215   -1.0882   -1.6928 H       1  LIG1        0.0277
     50 H           1.5116   -2.3213   -1.3754 H       1  LIG1        0.0277
@<TRIPOS>BOND
     1    34    15    1
     2    15    35    1
     3    15    14    1
     4    14    33    1
     5    14    12   am
     6    13    12    2
     7    46    23    1
     8    12    11    1
     9    49    25    1
    10    50    25    1
    11    45    22    1
    12    25    23    1
    13    25    16    1
    14    23    22    1
    15    23    24    1
    16    32    11    1
    17    11    10    1
    18    11    31    1
    19    22    44    1
    20    22    18    1
    21    48    24    1
    22    30     9    1
    23    10     9   ar
    24    10     5   ar
    25     9     8   ar
    26    24    47    1
    27    24    20    1
    28    29     6    1
    29    37    17    1
    30     5     6   ar
    31     5     4   ar
    32     6     1   ar
    33     8    16    1
    34     8     7   ar
    35    16    17    1
    36    16    21    1
    37     4     7   ar
    38     4     3   ar
    39     1    26    1
    40     1     2   ar
    41    17    18    1
    42    17    36    1
    43    18    38    1
    44    18    19    1
    45     3     2   ar
    46     3    28    1
    47     2    27    1
    48    43    21    1
    49    21    20    1
    50    21    42    1
    51    20    19    1
    52    20    41    1
    53    19    40    1
    54    19    39    1
