@<TRIPOS>MOLECULE
4_5E
 52 55 0 0 0
SMALL
GASTEIGER

@<TRIPOS>ATOM
      1 C          -1.3486    4.1521    0.7197 C.ar    1  LIG11      -0.0608
      2 C          -0.0343    4.3819    1.1027 C.ar    1  LIG11      -0.0563
      3 C           0.9060    3.3385    1.1013 C.ar    1  LIG11      -0.0183
      4 C           0.5133    2.0412    0.7180 C.ar    1  LIG11       0.0750
      5 C          -0.8273    1.7999    0.3305 C.ar    1  LIG11       0.0043
      6 C          -1.7414    2.8758    0.3344 C.ar    1  LIG11      -0.0523
      7 N           1.4239    1.0493    0.7318 N.ar    1  LIG11      -0.2510
      8 C           1.0834   -0.2031    0.3599 C.ar    1  LIG11       0.0453
      9 C          -0.2034   -0.5226   -0.0360 C.ar    1  LIG11      -0.0359
     10 C          -1.1830    0.4780   -0.0452 C.ar    1  LIG11      -0.0277
     11 C          -2.5923    0.0936   -0.4485 C.3     1  LIG11       0.0510
     12 C          -3.6118    0.1556    0.6757 C.2     1  LIG11       0.2306
     13 O          -4.7309    0.6442    0.5157 O.2     1  LIG11      -0.2742
     14 N          -3.2159   -0.4388    1.8667 N.am    1  LIG11      -0.2533
     15 N          -4.0905   -0.4257    2.9745 N.3     1  LIG11      -0.2544
     16 C           2.1732   -1.2533    0.3684 C.3     1  LIG11       0.0014
     17 C           3.2336   -0.9774   -0.7148 C.3     1  LIG11      -0.0448
     18 C           4.5811   -1.0656   -0.0083 C.3     1  LIG11      -0.0524
     19 C           4.2779   -0.6264    1.4127 C.3     1  LIG11      -0.0524
     20 C           2.9427   -1.2980    1.7009 C.3     1  LIG11      -0.0448
     21 C           2.3533    3.5755    1.5061 C.3     1  LIG11      -0.0138
     22 C           3.3248    3.5635    0.3169 C.3     1  LIG11      -0.0461
     23 C           4.5996    4.2402    0.8247 C.3     1  LIG11      -0.0525
     24 C           4.2360    4.8975    2.1538 C.3     1  LIG11      -0.0525
     25 C           2.7140    4.9030    2.1843 C.3     1  LIG11      -0.0461
     26 H          -2.0679    4.9675    0.7189 H       1  LIG11       0.0618
     27 H           0.2392    5.3905    1.3975 H       1  LIG11       0.0621
     28 H          -2.7780    2.7412    0.0343 H       1  LIG11       0.0624
     29 H          -0.4421   -1.5393   -0.3353 H       1  LIG11       0.0639
     30 H          -2.6179   -0.9266   -0.8514 H       1  LIG11       0.0408
     31 H          -2.9209    0.7492   -1.2639 H       1  LIG11       0.0408
     32 H          -2.2499   -0.7299    2.0096 H       1  LIG11       0.1687
     33 H          -5.0393   -0.5761    2.6073 H       1  LIG11       0.1405
     34 H          -4.1278    0.5370    3.3257 H       1  LIG11       0.1405
     35 H           1.7223   -2.2396    0.1994 H       1  LIG11       0.0364
     36 H           3.1169    0.0169   -1.1630 H       1  LIG11       0.0272
     37 H           3.1700   -1.7049   -1.5313 H       1  LIG11       0.0272
     38 H           5.3407   -0.4395   -0.4854 H       1  LIG11       0.0265
     39 H           4.9407   -2.1014   -0.0151 H       1  LIG11       0.0265
     40 H           4.1794    0.4638    1.4645 H       1  LIG11       0.0265
     41 H           5.0562   -0.9333    2.1172 H       1  LIG11       0.0265
     42 H           2.4169   -0.8289    2.5388 H       1  LIG11       0.0272
     43 H           3.1248   -2.3453    1.9748 H       1  LIG11       0.0272
     44 H           2.6367    2.7786    2.2100 H       1  LIG11       0.0349
     45 H           2.9164    4.1364   -0.5256 H       1  LIG11       0.0271
     46 H           3.5316    2.5535   -0.0504 H       1  LIG11       0.0271
     47 H           4.9501    4.9825    0.0994 H       1  LIG11       0.0265
     48 H           5.4063    3.5126    0.9653 H       1  LIG11       0.0265
     49 H           4.6558    5.9036    2.2465 H       1  LIG11       0.0265
     50 H           4.6254    4.2956    2.9835 H       1  LIG11       0.0265
     51 H           2.3544    5.7679    1.6148 H       1  LIG11       0.0271
     52 H           2.3204    4.9749    3.2029 H       1  LIG11       0.0271
@<TRIPOS>BOND
     1    37    17    1
     2    31    11    1
     3    36    17    1
     4    30    11    1
     5    17    18    1
     6    17    16    1
     7    45    22    1
     8    38    18    1
     9    11    10    1
    10    11    12    1
    11    29     9    1
    12    46    22    1
    13    10     9   ar
    14    10     5   ar
    15     9     8   ar
    16    39    18    1
    17    18    19    1
    18    28     6    1
    19    47    23    1
    20    35    16    1
    21    22    23    1
    22    22    21    1
    23     5     6   ar
    24     5     4   ar
    25     6     1   ar
    26     8    16    1
    27     8     7   ar
    28    16    20    1
    29    13    12    2
    30    12    14   am
    31     4     7   ar
    32     4     3   ar
    33    26     1    1
    34     1     2   ar
    35    23    48    1
    36    23    24    1
    37     3     2   ar
    38     3    21    1
    39     2    27    1
    40    19    40    1
    41    19    20    1
    42    19    41    1
    43    21    25    1
    44    21    44    1
    45    51    25    1
    46    20    43    1
    47    20    42    1
    48    14    32    1
    49    14    15    1
    50    24    25    1
    51    24    49    1
    52    24    50    1
    53    25    52    1
    54    33    15    1
    55    15    34    1
