@<TRIPOS>MOLECULE
4_5F
 58 61 0 0 0
SMALL
GASTEIGER

@<TRIPOS>ATOM
      1 C          -1.3589    4.1540    0.7311 C.ar    1  LIG11      -0.0608
      2 C          -0.0421    4.3886    1.0912 C.ar    1  LIG11      -0.0563
      3 C           0.9048    3.3449    1.0869 C.ar    1  LIG11      -0.0183
      4 C           0.5207    2.0401    0.7188 C.ar    1  LIG11       0.0750
      5 C          -0.8208    1.8044    0.3332 C.ar    1  LIG11       0.0043
      6 C          -1.7444    2.8741    0.3545 C.ar    1  LIG11      -0.0523
      7 N           1.4229    1.0368    0.7284 N.ar    1  LIG11      -0.2510
      8 C           1.0825   -0.2266    0.3848 C.ar    1  LIG11       0.0453
      9 C          -0.2024   -0.5177   -0.0433 C.ar    1  LIG11      -0.0359
     10 C          -1.1736    0.4924   -0.0685 C.ar    1  LIG11      -0.0277
     11 C          -2.5635    0.1304   -0.5548 C.3     1  LIG11       0.0510
     12 C          -2.9533    0.7531   -1.8842 C.2     1  LIG11       0.2306
     13 O          -4.0690    1.2388   -2.0748 O.2     1  LIG11      -0.2742
     14 N          -1.9912    0.6700   -2.8822 N.am    1  LIG11      -0.2533
     15 N          -2.2565    1.2279   -4.1514 N.3     1  LIG11      -0.2544
     16 C           2.1969   -1.2730    0.3829 C.3     1  LIG11       0.0014
     17 C           1.7533   -2.7136    0.7220 C.3     1  LIG11      -0.0448
     18 C           1.3913   -2.8864    2.1969 C.3     1  LIG11      -0.0525
     19 C           2.5484   -2.4801    3.1037 C.3     1  LIG11      -0.0530
     20 C           3.0430   -1.0719    2.7912 C.3     1  LIG11      -0.0525
     21 C           3.3803   -0.9056    1.3077 C.3     1  LIG11      -0.0448
     22 C           2.3338    3.7049    1.4948 C.3     1  LIG11      -0.0138
     23 C           3.3623    3.4734    0.3727 C.3     1  LIG11      -0.0461
     24 C           4.7659    3.8935    0.8071 C.3     1  LIG11      -0.0525
     25 C           5.1826    3.2084    2.1053 C.3     1  LIG11      -0.0530
     26 C           4.1729    3.4573    3.2219 C.3     1  LIG11      -0.0525
     27 C           2.7622    3.0374    2.8124 C.3     1  LIG11      -0.0461
     28 H          -2.0834    4.9642    0.7404 H       1  LIG11       0.0618
     29 H           0.2486    5.3967    1.3800 H       1  LIG11       0.0621
     30 H          -2.7867    2.7293    0.0794 H       1  LIG11       0.0624
     31 H          -0.4643   -1.5193   -0.3666 H       1  LIG11       0.0639
     32 H          -3.2954    0.4274    0.2061 H       1  LIG11       0.0408
     33 H          -2.6677   -0.9563   -0.6651 H       1  LIG11       0.0408
     34 H          -1.0401    0.3736   -2.6677 H       1  LIG11       0.1687
     35 H          -3.2435    1.0314   -4.3632 H       1  LIG11       0.1405
     36 H          -2.2402    2.2480   -4.0486 H       1  LIG11       0.1405
     37 H           2.5783   -1.2816   -0.6476 H       1  LIG11       0.0364
     38 H           2.5830   -3.3952    0.4889 H       1  LIG11       0.0272
     39 H           0.9207   -3.0460    0.0947 H       1  LIG11       0.0272
     40 H           0.5049   -2.2887    2.4392 H       1  LIG11       0.0265
     41 H           1.1294   -3.9332    2.3888 H       1  LIG11       0.0265
     42 H           2.2355   -2.5387    4.1522 H       1  LIG11       0.0265
     43 H           3.3748   -3.1907    2.9782 H       1  LIG11       0.0265
     44 H           2.2750   -0.3483    3.0864 H       1  LIG11       0.0265
     45 H           3.9316   -0.8536    3.3945 H       1  LIG11       0.0265
     46 H           3.7340    0.1141    1.1198 H       1  LIG11       0.0272
     47 H           4.2270   -1.5638    1.0699 H       1  LIG11       0.0272
     48 H           2.3517    4.7877    1.6905 H       1  LIG11       0.0349
     49 H           3.0746    4.0409   -0.5211 H       1  LIG11       0.0271
     50 H           3.3957    2.4211    0.0725 H       1  LIG11       0.0271
     51 H           5.4836    3.6506    0.0154 H       1  LIG11       0.0265
     52 H           4.7962    4.9817    0.9419 H       1  LIG11       0.0265
     53 H           5.2802    2.1292    1.9346 H       1  LIG11       0.0265
     54 H           6.1687    3.5734    2.4135 H       1  LIG11       0.0265
     55 H           4.4739    2.9066    4.1203 H       1  LIG11       0.0265
     56 H           4.1746    4.5222    3.4851 H       1  LIG11       0.0265
     57 H           2.7372    1.9477    2.7251 H       1  LIG11       0.0271
     58 H           2.0595    3.3003    3.6128 H       1  LIG11       0.0271
@<TRIPOS>BOND
     1    35    15    1
     2    15    36    1
     3    15    14    1
     4    14    34    1
     5    14    12   am
     6    13    12    2
     7    12    11    1
     8    33    11    1
     9    37    16    1
    10    11    10    1
    11    11    32    1
    12    49    23    1
    13    31     9    1
    14    10     9   ar
    15    10     5   ar
    16     9     8   ar
    17    51    24    1
    18    50    23    1
    19    30     6    1
    20    39    17    1
    21     5     6   ar
    22     5     4   ar
    23     6     1   ar
    24    23    24    1
    25    23    22    1
    26    16     8    1
    27    16    17    1
    28    16    21    1
    29     8     7   ar
    30    38    17    1
    31     4     7   ar
    32     4     3   ar
    33    17    18    1
    34     1    28    1
    35     1     2   ar
    36    24    52    1
    37    24    25    1
    38    47    21    1
    39     3     2   ar
    40     3    22    1
    41     2    29    1
    42    46    21    1
    43    21    20    1
    44    22    48    1
    45    22    27    1
    46    53    25    1
    47    25    54    1
    48    25    26    1
    49    18    41    1
    50    18    40    1
    51    18    19    1
    52    57    27    1
    53    20    44    1
    54    20    19    1
    55    20    45    1
    56    27    26    1
    57    27    58    1
    58    43    19    1
    59    19    42    1
    60    26    56    1
    61    26    55    1
