@<TRIPOS>MOLECULE
4_7G
 62 65 0 0 0
SMALL
USER_CHARGES

@<TRIPOS>ATOM
      1 C          -0.6730    1.8860    0.3240 C.ar    1  LIG11       0.0039
      2 C          -1.5820    2.9750    0.4430 C.ar    1  LIG11      -0.0523
      3 C          -1.1650    4.2460    0.8770 C.ar    1  LIG11      -0.0611
      4 C           0.1760    4.4660    1.2250 C.ar    1  LIG11      -0.0597
      5 C           1.1010    3.4160    1.1300 C.ar    1  LIG11      -0.0357
      6 C           0.6770    2.1470    0.6880 C.ar    1  LIG11       0.0721
      7 N           1.5910    1.1550    0.6230 N.ar    1  LIG11      -0.2421
      8 C           1.3620   -0.1240    0.2570 C.ar    1  LIG11       0.1265
      9 C           0.0110   -0.4220   -0.0850 C.ar    1  LIG11      -0.0271
     10 C          -1.0160    0.5630   -0.1080 C.ar    1  LIG11      -0.0329
     11 C           2.4310   -1.1020    0.2070 C.2     1  LIG11       0.2649
     12 N           3.8410   -0.9370    0.1550 N.am    1  LIG11      -0.2968
     13 O           1.9830   -2.2720    0.2300 O.2     1  LIG11      -0.2683
     14 C          -2.4220    0.1940   -0.5540 C.3     1  LIG11      -0.0147
     15 C          -3.3680    0.0510    0.6820 C.3     1  LIG11      -0.0433
     16 C          -2.5210   -0.9700   -1.5960 C.3     1  LIG11      -0.0433
     17 C          -3.8630   -1.1650   -2.4000 C.3     1  LIG11      -0.0405
     18 C          -4.9250    0.1210    0.4610 C.3     1  LIG11      -0.0405
     19 C          -5.6780   -1.2520    0.4220 C.3     1  LIG11      -0.0502
     20 C          -5.0340   -2.4330   -0.3430 C.3     1  LIG11      -0.0526
     21 C          -4.8460   -2.2680   -1.8710 C.3     1  LIG11      -0.0502
     22 C          -5.4270    1.1840   -0.5780 C.3     1  LIG11      -0.0502
     23 C          -5.7130    0.7510   -2.0410 C.3     1  LIG11      -0.0526
     24 C          -4.5710    0.1420   -2.8990 C.3     1  LIG11      -0.0502
     25 C           4.7770   -2.0600    0.3600 C.3     1  LIG11       0.0122
     26 C           4.5060    0.3710    0.0190 C.3     1  LIG11       0.0122
     27 C           4.0380    1.3310   -1.1110 C.3     1  LIG11      -0.0493
     28 C           5.9130   -2.0560    1.4180 C.3     1  LIG11      -0.0493
     29 H          -2.6330    2.8310    0.1930 H       1  LIG11       0.0624
     30 H          -1.8830    5.0620    0.9450 H       1  LIG11       0.0618
     31 H           0.4980    5.4500    1.5680 H       1  LIG11       0.0618
     32 H           2.1440    3.5850    1.3990 H       1  LIG11       0.0639
     33 H          -0.2480   -1.4490   -0.3390 H       1  LIG11       0.0643
     34 H          -2.7530    1.0520   -1.1390 H       1  LIG11       0.0349
     35 H          -3.1830   -0.9580    1.0540 H       1  LIG11       0.0274
     36 H          -3.1350    0.9130    1.3070 H       1  LIG11       0.0274
     37 H          -1.7760   -0.7250   -2.3530 H       1  LIG11       0.0274
     38 H          -2.4170   -1.8790   -1.0030 H       1  LIG11       0.0274
     39 H          -3.4770   -1.6050   -3.3200 H       1  LIG11       0.0301
     40 H          -5.2580    0.5420    1.4090 H       1  LIG11       0.0301
     41 H          -5.7120   -1.5840    1.4600 H       1  LIG11       0.0268
     42 H          -6.6050   -1.0500   -0.1160 H       1  LIG11       0.0268
     43 H          -4.0250   -2.5160    0.0600 H       1  LIG11       0.0265
     44 H          -5.7360   -3.2600   -0.2310 H       1  LIG11       0.0265
     45 H          -4.4110   -3.2140   -2.1940 H       1  LIG11       0.0268
     46 H          -5.8290   -1.9680   -2.2340 H       1  LIG11       0.0268
     47 H          -6.3960    1.5080   -0.1990 H       1  LIG11       0.0268
     48 H          -4.6090    1.8990   -0.6630 H       1  LIG11       0.0268
     49 H          -6.4450   -0.0510   -1.9510 H       1  LIG11       0.0265
     50 H          -5.9780    1.6760   -2.5540 H       1  LIG11       0.0265
     51 H          -5.0530   -0.1400   -3.8350 H       1  LIG11       0.0268
     52 H          -3.7900    0.9030   -2.8950 H       1  LIG11       0.0268
     53 H           4.1110   -2.8660    0.6700 H       1  LIG11       0.0462
     54 H           5.2900   -2.1160   -0.6000 H       1  LIG11       0.0462
     55 H           4.2720    0.8760    0.9560 H       1  LIG11       0.0462
     56 H           5.5380    0.1110   -0.2180 H       1  LIG11       0.0462
     57 H           3.0460    1.0360   -1.4510 H       1  LIG11       0.0245
     58 H           4.0030    2.3510   -0.7290 H       1  LIG11       0.0245
     59 H           4.7380    1.2790   -1.9450 H       1  LIG11       0.0245
     60 H           6.6530   -2.8120    1.1580 H       1  LIG11       0.0245
     61 H           6.3870   -1.0750    1.4380 H       1  LIG11       0.0245
     62 H           5.4950   -2.2780    2.4000 H       1  LIG11       0.0245
@<TRIPOS>BOND
     1     1     2   ar
     2     1     6   ar
     3     1    10   ar
     4     2     3   ar
     5     3     4   ar
     6     4     5   ar
     7     5     6   ar
     8     6     7   ar
     9     7     8   ar
    10     8     9   ar
    11     9    10   ar
    12     8    11    1
    13    11    12   am
    14    11    13    2
    15    10    14    1
    16    14    15    1
    17    14    16    1
    18    16    17    1
    19    15    18    1
    20    18    19    1
    21    19    20    1
    22    20    21    1
    23    17    21    1
    24    18    22    1
    25    22    23    1
    26    23    24    1
    27    24    17    1
    28    12    25    1
    29    12    26    1
    30    26    27    1
    31    25    28    1
    32     2    29    1
    33     3    30    1
    34     4    31    1
    35     5    32    1
    36     9    33    1
    37    14    34    1
    38    15    35    1
    39    15    36    1
    40    16    37    1
    41    16    38    1
    42    17    39    1
    43    18    40    1
    44    19    41    1
    45    19    42    1
    46    20    43    1
    47    20    44    1
    48    21    45    1
    49    21    46    1
    50    22    47    1
    51    22    48    1
    52    23    49    1
    53    23    50    1
    54    24    51    1
    55    24    52    1
    56    25    53    1
    57    25    54    1
    58    26    55    1
    59    26    56    1
    60    27    57    1
    61    27    58    1
    62    27    59    1
    63    28    60    1
    64    28    61    1
    65    28    62    1
