@<TRIPOS>MOLECULE
4_7I
 64 68 0 0 0
SMALL
USER_CHARGES

@<TRIPOS>ATOM
      1 C          -0.8070    1.7830    0.2650 C.ar    1  LIG11       0.0039
      2 C          -1.7810    2.8100    0.3820 C.ar    1  LIG11      -0.0523
      3 C          -1.4360    4.1160    0.7660 C.ar    1  LIG11      -0.0611
      4 C          -0.1030    4.4400    1.0600 C.ar    1  LIG11      -0.0597
      5 C           0.9120    3.4700    0.9830 C.ar    1  LIG11      -0.0357
      6 C           0.5370    2.1310    0.5910 C.ar    1  LIG11       0.0721
      7 N           1.5160    1.1950    0.5700 N.ar    1  LIG11      -0.2421
      8 C           1.2970   -0.1090    0.2750 C.ar    1  LIG11       0.1266
      9 C          -0.0210   -0.4960   -0.0650 C.ar    1  LIG11      -0.0271
     10 C          -1.0910    0.4360   -0.1280 C.ar    1  LIG11      -0.0329
     11 C           2.3620   -1.0470    0.3490 C.2     1  LIG11       0.2666
     12 N           3.5730   -0.7460    0.9240 N.am    1  LIG11      -0.2802
     13 O           2.1490   -2.2080   -0.0810 O.2     1  LIG11      -0.2682
     14 C          -2.4700   -0.0350   -0.5570 C.3     1  LIG11      -0.0147
     15 C          -2.8710    0.6890   -1.8830 C.3     1  LIG11      -0.0433
     16 C          -3.5400   -0.0270    0.5860 C.3     1  LIG11      -0.0433
     17 C          -4.9250   -0.7350    0.3670 C.3     1  LIG11      -0.0405
     18 C          -4.0860    0.1460   -2.7180 C.3     1  LIG11      -0.0405
     19 C          -5.4520    0.8920   -2.5200 C.3     1  LIG11      -0.0502
     20 C          -5.8570    1.3190   -1.0860 C.3     1  LIG11      -0.0526
     21 C          -6.1120    0.2090   -0.0320 C.3     1  LIG11      -0.0502
     22 C          -4.1940   -1.4130   -2.8360 C.3     1  LIG11      -0.0502
     23 C          -5.1710   -2.1620   -1.8920 C.3     1  LIG11      -0.0526
     24 C          -4.8920   -2.1180   -0.3680 C.3     1  LIG11      -0.0502
     25 C           4.6210   -1.6210    1.0550 C.ar    1  LIG11       0.0339
     26 C           4.4870   -2.9020    1.6460 C.ar    1  LIG11      -0.0370
     27 C           5.9020   -1.2100    0.6210 C.ar    1  LIG11      -0.0370
     28 C           7.0350   -2.0100    0.8700 C.ar    1  LIG11      -0.0182
     29 C           6.9020   -3.2320    1.5600 C.ar    1  LIG11       0.1202
     30 C           5.6190   -3.6910    1.9140 C.ar    1  LIG11      -0.0182
     31 O           8.0080   -3.9690    1.8830 O.3     1  LIG11      -0.4951
     32 C           8.2470   -5.0330    0.9390 C.3     1  LIG11       0.0788
     33 H          -2.8270    2.5890    0.1710 H       1  LIG11       0.0624
     34 H          -2.2070    4.8830    0.8350 H       1  LIG11       0.0618
     35 H           0.1480    5.4590    1.3520 H       1  LIG11       0.0618
     36 H           1.9410    3.7430    1.2170 H       1  LIG11       0.0639
     37 H          -0.2200   -1.5450   -0.2850 H       1  LIG11       0.0643
     38 H           3.7020    0.1910    1.2770 H       1  LIG11       0.1552
     39 H          -2.3900   -1.1000   -0.7760 H       1  LIG11       0.0349
     40 H          -3.1750    1.6870   -1.5680 H       1  LIG11       0.0274
     41 H          -2.0070    0.5630   -2.5350 H       1  LIG11       0.0274
     42 H          -3.0730   -0.5830    1.3990 H       1  LIG11       0.0274
     43 H          -3.7880    1.0270    0.7180 H       1  LIG11       0.0274
     44 H          -5.1830   -1.0340    1.3830 H       1  LIG11       0.0301
     45 H          -3.8020    0.4450   -3.7270 H       1  LIG11       0.0301
     46 H          -5.3440    1.8300   -3.0660 H       1  LIG11       0.0268
     47 H          -6.2140    0.1720   -2.8180 H       1  LIG11       0.0268
     48 H          -4.9990    1.8730   -0.7070 H       1  LIG11       0.0265
     49 H          -6.8190    1.8180   -1.2050 H       1  LIG11       0.0265
     50 H          -6.3620    0.7510    0.8810 H       1  LIG11       0.0268
     51 H          -6.8500   -0.4450   -0.4960 H       1  LIG11       0.0268
     52 H          -4.5860   -1.5950   -3.8370 H       1  LIG11       0.0268
     53 H          -3.2070   -1.7860   -2.5610 H       1  LIG11       0.0268
     54 H          -6.1270   -1.6530   -2.0160 H       1  LIG11       0.0265
     55 H          -5.0740   -3.2130   -2.1640 H       1  LIG11       0.0265
     56 H          -5.7060   -2.6920    0.0750 H       1  LIG11       0.0268
     57 H          -3.8640   -2.4650   -0.2680 H       1  LIG11       0.0268
     58 H           3.4990   -3.2850    1.8980 H       1  LIG11       0.0637
     59 H           6.0160   -0.2670    0.0870 H       1  LIG11       0.0637
     60 H           8.0170   -1.6820    0.5290 H       1  LIG11       0.0655
     61 H           5.5010   -4.6610    2.3980 H       1  LIG11       0.0655
     62 H           7.6930   -4.8360    0.0210 H       1  LIG11       0.0660
     63 H           9.3120   -5.0880    0.7160 H       1  LIG11       0.0660
     64 H           7.9160   -5.9790    1.3670 H       1  LIG11       0.0660
@<TRIPOS>BOND
     1     1     2   ar
     2     1     6   ar
     3     1    10   ar
     4     2     3   ar
     5     3     4   ar
     6     4     5   ar
     7     5     6   ar
     8     6     7   ar
     9     7     8   ar
    10     8     9   ar
    11     9    10   ar
    12     8    11    1
    13    11    12   am
    14    11    13    2
    15    10    14    1
    16    14    15    1
    17    14    16    1
    18    16    17    1
    19    15    18    1
    20    18    19    1
    21    19    20    1
    22    20    21    1
    23    17    21    1
    24    18    22    1
    25    22    23    1
    26    23    24    1
    27    24    17    1
    28    12    25    1
    29    26    25   ar
    30    25    27   ar
    31    26    30   ar
    32    27    28   ar
    33    28    29   ar
    34    29    30   ar
    35    29    31    1
    36    31    32    1
    37     2    33    1
    38     3    34    1
    39     4    35    1
    40     5    36    1
    41     9    37    1
    42    12    38    1
    43    14    39    1
    44    15    40    1
    45    15    41    1
    46    16    42    1
    47    16    43    1
    48    17    44    1
    49    18    45    1
    50    19    46    1
    51    19    47    1
    52    20    48    1
    53    20    49    1
    54    21    50    1
    55    21    51    1
    56    22    52    1
    57    22    53    1
    58    23    54    1
    59    23    55    1
    60    24    56    1
    61    24    57    1
    62    26    58    1
    63    27    59    1
    64    28    60    1
    65    30    61    1
    66    32    62    1
    67    32    63    1
    68    32    64    1
