@<TRIPOS>MOLECULE
4_7J
 64 68 0 0 0
SMALL
USER_CHARGES

@<TRIPOS>ATOM
      1 C          -0.8910    1.6870    0.3510 C.ar    1  LIG11       0.0039
      2 C          -1.8900    2.6920    0.4490 C.ar    1  LIG11      -0.0523
      3 C          -1.5820    4.0040    0.8430 C.ar    1  LIG11      -0.0611
      4 C          -0.2640    4.3530    1.1730 C.ar    1  LIG11      -0.0597
      5 C           0.7720    3.4060    1.1210 C.ar    1  LIG11      -0.0357
      6 C           0.4360    2.0620    0.7110 C.ar    1  LIG11       0.0721
      7 N           1.4330    1.1440    0.7120 N.ar    1  LIG11      -0.2421
      8 C           1.2470   -0.1640    0.4100 C.ar    1  LIG11       0.1266
      9 C          -0.0520   -0.5750    0.0320 C.ar    1  LIG11      -0.0271
     10 C          -1.1370    0.3340   -0.0530 C.ar    1  LIG11      -0.0329
     11 C           2.3180   -1.0870    0.5190 C.2     1  LIG11       0.2666
     12 N           3.6010   -0.6990    0.8140 N.am    1  LIG11      -0.2802
     13 O           2.0480   -2.3060    0.3930 O.2     1  LIG11      -0.2682
     14 C          -2.4950   -0.1710   -0.5140 C.3     1  LIG11      -0.0147
     15 C          -2.8870    0.5480   -1.8460 C.3     1  LIG11      -0.0433
     16 C          -3.5890   -0.2080    0.6080 C.3     1  LIG11      -0.0433
     17 C          -4.9400   -0.9670    0.3560 C.3     1  LIG11      -0.0405
     18 C          -4.0610   -0.0350   -2.7110 C.3     1  LIG11      -0.0405
     19 C          -5.4540    0.6610   -2.5370 C.3     1  LIG11      -0.0502
     20 C          -5.9090    1.0590   -1.1090 C.3     1  LIG11      -0.0526
     21 C          -6.1490   -0.0630   -0.0650 C.3     1  LIG11      -0.0502
     22 C          -4.1120   -1.5960   -2.8370 C.3     1  LIG11      -0.0502
     23 C          -5.0800   -2.3860   -1.9170 C.3     1  LIG11      -0.0526
     24 C          -4.8390   -2.3430   -0.3860 C.3     1  LIG11      -0.0502
     25 C           4.6720   -1.5440    0.9470 C.ar    1  LIG11       0.0353
     26 C           5.5700   -1.6770   -0.1330 C.ar    1  LIG11      -0.0369
     27 C           4.9380   -2.2560    2.1420 C.ar    1  LIG11      -0.0186
     28 C           6.1310   -2.9850    2.3050 C.ar    1  LIG11       0.0843
     29 C           7.0690   -3.0270    1.2500 C.ar    1  LIG11       0.1384
     30 C           6.7640   -2.4070    0.0190 C.ar    1  LIG11      -0.0167
     31 O           8.2760   -3.6520    1.4080 O.3     1  LIG11      -0.4936
     32 C           9.3140   -2.7450    1.8350 C.3     1  LIG11       0.0789
     33 CL          6.4230   -3.7770    3.7750 Cl      1  LIG11      -0.0797
     34 H          -2.9270    2.4490    0.2150 H       1  LIG11       0.0624
     35 H          -2.3700    4.7550    0.8930 H       1  LIG11       0.0618
     36 H          -0.0420    5.3770    1.4750 H       1  LIG11       0.0618
     37 H           1.7880    3.6990    1.3850 H       1  LIG11       0.0639
     38 H          -0.2210   -1.6260   -0.2020 H       1  LIG11       0.0643
     39 H           3.7700    0.2880    0.9430 H       1  LIG11       0.1552
     40 H          -2.3790   -1.2310   -0.7390 H       1  LIG11       0.0349
     41 H          -3.2320    1.5330   -1.5340 H       1  LIG11       0.0274
     42 H          -2.0030    0.4540   -2.4780 H       1  LIG11       0.0274
     43 H          -3.1200   -0.7490    1.4290 H       1  LIG11       0.0274
     44 H          -3.8810    0.8350    0.7390 H       1  LIG11       0.0274
     45 H          -5.2100   -1.2870    1.3620 H       1  LIG11       0.0301
     46 H          -3.7670    0.2770   -3.7120 H       1  LIG11       0.0301
     47 H          -5.3670    1.6060   -3.0710 H       1  LIG11       0.0268
     48 H          -6.1830   -0.0830   -2.8600 H       1  LIG11       0.0268
     49 H          -5.0810    1.6420   -0.7060 H       1  LIG11       0.0265
     50 H          -6.8860    1.5230   -1.2490 H       1  LIG11       0.0265
     51 H          -6.4360    0.4650    0.8450 H       1  LIG11       0.0268
     52 H          -6.8540   -0.7410   -0.5460 H       1  LIG11       0.0268
     53 H          -4.4770   -1.7860   -3.8460 H       1  LIG11       0.0268
     54 H          -3.1180   -1.9350   -2.5440 H       1  LIG11       0.0268
     55 H          -6.0510   -1.9110   -2.0600 H       1  LIG11       0.0265
     56 H          -4.9380   -3.4310   -2.1930 H       1  LIG11       0.0265
     57 H          -5.6410   -2.9490    0.0340 H       1  LIG11       0.0268
     58 H          -3.8000   -2.6520   -0.2650 H       1  LIG11       0.0268
     59 H           5.3400   -1.2120   -1.0910 H       1  LIG11       0.0637
     60 H           4.2110   -2.2420    2.9540 H       1  LIG11       0.0652
     61 H           7.4560   -2.4920   -0.8200 H       1  LIG11       0.0655
     62 H           9.8490   -3.1790    2.6800 H       1  LIG11       0.0660
     63 H          10.0090   -2.5750    1.0130 H       1  LIG11       0.0660
     64 H           8.8670   -1.7980    2.1350 H       1  LIG11       0.0660
@<TRIPOS>BOND
     1     1     2   ar
     2     1     6   ar
     3     1    10   ar
     4     2     3   ar
     5     3     4   ar
     6     4     5   ar
     7     5     6   ar
     8     6     7   ar
     9     7     8   ar
    10     8     9   ar
    11     9    10   ar
    12     8    11    1
    13    11    12   am
    14    11    13    2
    15    10    14    1
    16    14    15    1
    17    14    16    1
    18    16    17    1
    19    15    18    1
    20    18    19    1
    21    19    20    1
    22    20    21    1
    23    17    21    1
    24    18    22    1
    25    22    23    1
    26    23    24    1
    27    24    17    1
    28    12    25    1
    29    26    25   ar
    30    25    27   ar
    31    26    30   ar
    32    27    28   ar
    33    28    29   ar
    34    29    30   ar
    35    29    31    1
    36    31    32    1
    37    28    33    1
    38     2    34    1
    39     3    35    1
    40     4    36    1
    41     5    37    1
    42     9    38    1
    43    12    39    1
    44    14    40    1
    45    15    41    1
    46    15    42    1
    47    16    43    1
    48    16    44    1
    49    17    45    1
    50    18    46    1
    51    19    47    1
    52    19    48    1
    53    20    49    1
    54    20    50    1
    55    21    51    1
    56    21    52    1
    57    22    53    1
    58    22    54    1
    59    23    55    1
    60    23    56    1
    61    24    57    1
    62    24    58    1
    63    26    59    1
    64    27    60    1
    65    30    61    1
    66    32    62    1
    67    32    63    1
    68    32    64    1
