@<TRIPOS>MOLECULE
4_7K
 62 66 0 0 0
SMALL
USER_CHARGES

@<TRIPOS>ATOM
      1 C          -1.0360    1.8000    0.3680 C.ar    1  LIG11       0.0039
      2 C          -1.9870    2.8520    0.4810 C.ar    1  LIG11      -0.0523
      3 C          -1.6090    4.1470    0.8850 C.ar    1  LIG11      -0.0611
      4 C          -0.2700    4.4270    1.1950 C.ar    1  LIG11      -0.0597
      5 C           0.6910    3.4080    1.1190 C.ar    1  LIG11      -0.0357
      6 C           0.3080    2.1100    0.7300 C.ar    1  LIG11       0.0721
      7 N           1.2530    1.1440    0.7350 N.ar    1  LIG11      -0.2421
      8 C           1.0080   -0.1540    0.4360 C.ar    1  LIG11       0.1266
      9 C          -0.3070   -0.5100    0.0740 C.ar    1  LIG11      -0.0271
     10 C          -1.3380    0.4610   -0.0450 C.ar    1  LIG11      -0.0329
     11 C           2.0760   -1.0780    0.5040 C.2     1  LIG11       0.2666
     12 N           3.3440   -0.6100    0.6930 N.am    1  LIG11      -0.2802
     13 O           1.8500   -2.3110    0.4200 O.2     1  LIG11      -0.2682
     14 C          -2.6970    0.0220   -0.5580 C.3     1  LIG11      -0.0147
     15 C          -2.9890    0.8070   -1.8750 C.3     1  LIG11      -0.0433
     16 C          -3.8100    0.0260    0.5520 C.3     1  LIG11      -0.0433
     17 C          -5.2410   -0.5510    0.2520 C.3     1  LIG11      -0.0405
     18 C          -4.2250    0.4060   -2.7530 C.3     1  LIG11      -0.0405
     19 C          -5.5050    1.2820   -2.5480 C.3     1  LIG11      -0.0502
     20 C          -5.9300    1.6510   -1.1040 C.3     1  LIG11      -0.0526
     21 C          -6.3350    0.5000   -0.1480 C.3     1  LIG11      -0.0502
     22 C          -4.4700   -1.1310   -2.9430 C.3     1  LIG11      -0.0502
     23 C          -5.5380   -1.8370   -2.0700 C.3     1  LIG11      -0.0526
     24 C          -5.2860   -1.8980   -0.5440 C.3     1  LIG11      -0.0502
     25 C           4.4880   -1.3400    0.7560 C.ar    1  LIG11       0.0338
     26 C           4.8030   -2.3780   -0.1460 C.ar    1  LIG11      -0.0383
     27 C           5.3980   -1.0210    1.7790 C.ar    1  LIG11      -0.0383
     28 C           6.5690   -1.7820    1.9540 C.ar    1  LIG11      -0.0297
     29 C           6.8820   -2.8670    1.0880 C.ar    1  LIG11       0.1263
     30 C           5.9790   -3.1290    0.0240 C.ar    1  LIG11      -0.0297
     31 N           7.9770   -3.6310    1.2660 N.pl3   1  LIG11       0.0564
     32 O           8.5390   -3.6890    2.2890 O.2     1  LIG11      -0.1261
     33 O           8.4180   -4.3070    0.4190 O.2     1  LIG11      -0.1261
     34 H          -3.0350    2.6600    0.2520 H       1  LIG11       0.0624
     35 H          -2.3580    4.9360    0.9570 H       1  LIG11       0.0618
     36 H           0.0240    5.4330    1.4950 H       1  LIG11       0.0618
     37 H           1.7320    3.6240    1.3600 H       1  LIG11       0.0639
     38 H          -0.5320   -1.5600   -0.1170 H       1  LIG11       0.0643
     39 H           3.4490    0.3890    0.7990 H       1  LIG11       0.1552
     40 H          -2.6590   -1.0350   -0.8220 H       1  LIG11       0.0349
     41 H          -3.2030    1.8230   -1.5440 H       1  LIG11       0.0274
     42 H          -2.1240    0.6100   -2.5070 H       1  LIG11       0.0274
     43 H          -3.4150   -0.6240    1.3330 H       1  LIG11       0.0274
     44 H          -3.9830    1.0820    0.7570 H       1  LIG11       0.0274
     45 H          -5.5630   -0.8640    1.2460 H       1  LIG11       0.0301
     46 H          -3.9000    0.6960   -3.7530 H       1  LIG11       0.0301
     47 H          -5.2710    2.2380   -3.0170 H       1  LIG11       0.0268
     48 H          -6.3270    0.6750   -2.9290 H       1  LIG11       0.0268
     49 H          -5.0400    2.0900   -0.6530 H       1  LIG11       0.0265
     50 H          -6.8340    2.2490   -1.2210 H       1  LIG11       0.0265
     51 H          -6.6050    0.9980    0.7830 H       1  LIG11       0.0268
     52 H          -7.0850   -0.0660   -0.7000 H       1  LIG11       0.0268
     53 H          -4.8420   -1.2330   -3.9630 H       1  LIG11       0.0268
     54 H          -3.5300   -1.6030   -2.6570 H       1  LIG11       0.0268
     55 H          -6.4390   -1.2360   -2.1850 H       1  LIG11       0.0265
     56 H          -5.5300   -2.8760   -2.4000 H       1  LIG11       0.0265
     57 H          -6.1450   -2.4360   -0.1430 H       1  LIG11       0.0268
     58 H          -4.2850   -2.3190   -0.4460 H       1  LIG11       0.0268
     59 H           4.1360   -2.6000   -0.9790 H       1  LIG11       0.0637
     60 H           5.1950   -0.1790    2.4410 H       1  LIG11       0.0637
     61 H           7.2430   -1.5280    2.7720 H       1  LIG11       0.0641
     62 H           6.1940   -3.9310   -0.6820 H       1  LIG11       0.0641
@<TRIPOS>BOND
     1     1     2   ar
     2     1     6   ar
     3     1    10   ar
     4     2     3   ar
     5     3     4   ar
     6     4     5   ar
     7     5     6   ar
     8     6     7   ar
     9     7     8   ar
    10     8     9   ar
    11     9    10   ar
    12     8    11    1
    13    11    12   am
    14    11    13    2
    15    10    14    1
    16    14    15    1
    17    14    16    1
    18    16    17    1
    19    15    18    1
    20    18    19    1
    21    19    20    1
    22    20    21    1
    23    17    21    1
    24    18    22    1
    25    22    23    1
    26    23    24    1
    27    24    17    1
    28    12    25    1
    29    26    25   ar
    30    25    27   ar
    31    26    30   ar
    32    27    28   ar
    33    28    29   ar
    34    29    30   ar
    35    29    31    1
    36    31    32    2
    37    31    33    2
    38     2    34    1
    39     3    35    1
    40     4    36    1
    41     5    37    1
    42     9    38    1
    43    12    39    1
    44    14    40    1
    45    15    41    1
    46    15    42    1
    47    16    43    1
    48    16    44    1
    49    17    45    1
    50    18    46    1
    51    19    47    1
    52    19    48    1
    53    20    49    1
    54    20    50    1
    55    21    51    1
    56    21    52    1
    57    22    53    1
    58    22    54    1
    59    23    55    1
    60    23    56    1
    61    24    57    1
    62    24    58    1
    63    26    59    1
    64    27    60    1
    65    28    61    1
    66    30    62    1
