@<TRIPOS>MOLECULE
4_7M
 63 67 0 0 0
SMALL
USER_CHARGES

@<TRIPOS>ATOM
      1 C          -0.8450    1.9290    0.2860 C.ar    1  LIG11       0.0039
      2 C          -1.7460    3.0280    0.2740 C.ar    1  LIG11      -0.0523
      3 C          -1.3370    4.3220    0.6400 C.ar    1  LIG11      -0.0611
      4 C          -0.0130    4.5580    1.0370 C.ar    1  LIG11      -0.0597
      5 C           0.9060    3.4970    1.0640 C.ar    1  LIG11      -0.0357
      6 C           0.4950    2.1980    0.6990 C.ar    1  LIG11       0.0721
      7 N           1.4060    1.1940    0.7540 N.ar    1  LIG11      -0.2421
      8 C           1.1230   -0.1000    0.4600 C.ar    1  LIG11       0.1263
      9 C          -0.2030   -0.4130    0.0870 C.ar    1  LIG11      -0.0271
     10 C          -1.1970    0.5850   -0.0730 C.ar    1  LIG11      -0.0329
     11 C           2.1440   -1.0900    0.5160 C.2     1  LIG11       0.2627
     12 N           3.4170   -0.7960    0.9200 N.am    1  LIG11      -0.3060
     13 O           1.8780   -2.2670    0.1690 O.2     1  LIG11      -0.2685
     14 C          -2.5670    0.1840   -0.5920 C.3     1  LIG11      -0.0147
     15 C          -3.5630    0.0410    0.6030 C.3     1  LIG11      -0.0433
     16 C          -2.5630   -1.0100   -1.6090 C.3     1  LIG11      -0.0433
     17 C          -3.8520   -1.3100   -2.4560 C.3     1  LIG11      -0.0405
     18 C          -5.1060    0.0300    0.3050 C.3     1  LIG11      -0.0405
     19 C          -5.7910   -1.3800    0.2790 C.3     1  LIG11      -0.0502
     20 C          -5.0430   -2.5580   -0.3920 C.3     1  LIG11      -0.0526
     21 C          -4.7790   -2.4550   -1.9150 C.3     1  LIG11      -0.0502
     22 C          -5.5990    1.0270   -0.8010 C.3     1  LIG11      -0.0502
     23 C          -5.8240    0.4990   -2.2430 C.3     1  LIG11      -0.0526
     24 C          -4.6120   -0.0660   -3.0300 C.3     1  LIG11      -0.0502
     25 C           4.4900   -1.7460    0.9240 C.3     1  LIG11       0.0372
     26 C           4.8470   -2.1910   -0.4450 C.ar    1  LIG11      -0.0303
     27 C           5.1810   -3.9840   -2.0870 C.ar    1  LIG11      -0.0615
     28 C           4.8190   -3.5630   -0.7930 C.ar    1  LIG11      -0.0571
     29 C           5.2470   -1.2520   -1.4250 C.ar    1  LIG11      -0.0571
     30 C           5.6080   -1.6710   -2.7190 C.ar    1  LIG11      -0.0615
     31 C           5.5710   -3.0370   -3.0510 C.ar    1  LIG11      -0.0617
     32 H          -2.7830    2.8730   -0.0240 H       1  LIG11       0.0624
     33 H          -2.0490    5.1460    0.6150 H       1  LIG11       0.0618
     34 H           0.3010    5.5610    1.3230 H       1  LIG11       0.0618
     35 H           1.9360    3.6810    1.3690 H       1  LIG11       0.0639
     36 H          -0.4680   -1.4560   -0.0830 H       1  LIG11       0.0643
     37 H           3.5710    0.1550    1.2250 H       1  LIG11       0.1494
     38 H          -2.9040    1.0160   -1.2100 H       1  LIG11       0.0349
     39 H          -3.3510   -0.9430    1.0210 H       1  LIG11       0.0274
     40 H          -3.4000    0.9350    1.2050 H       1  LIG11       0.0274
     41 H          -1.8070   -0.7390   -2.3460 H       1  LIG11       0.0274
     42 H          -2.4280   -1.8970   -0.9900 H       1  LIG11       0.0274
     43 H          -3.4140   -1.7500   -3.3520 H       1  LIG11       0.0301
     44 H          -5.5060    0.4690    1.2190 H       1  LIG11       0.0301
     45 H          -5.8760   -1.6710    1.3260 H       1  LIG11       0.0268
     46 H          -6.6880   -1.2470   -0.3250 H       1  LIG11       0.0268
     47 H          -4.0550   -2.5660    0.0680 H       1  LIG11       0.0265
     48 H          -5.7050   -3.4170   -0.2760 H       1  LIG11       0.0265
     49 H          -4.2570   -3.3790   -2.1630 H       1  LIG11       0.0268
     50 H          -5.7590   -2.2500   -2.3470 H       1  LIG11       0.0268
     51 H          -6.5870    1.3470   -0.4710 H       1  LIG11       0.0268
     52 H          -4.7950    1.7560   -0.9010 H       1  LIG11       0.0268
     53 H          -6.4980   -0.3500   -2.1260 H       1  LIG11       0.0265
     54 H          -6.1410    1.3720   -2.8130 H       1  LIG11       0.0265
     55 H          -5.0340   -0.4060   -3.9750 H       1  LIG11       0.0268
     56 H          -3.8790    0.7400   -3.0190 H       1  LIG11       0.0268
     57 H           5.3540   -1.2100    1.3170 H       1  LIG11       0.0512
     58 H           4.1050   -2.6190    1.4510 H       1  LIG11       0.0512
     59 H           5.1600   -5.0430   -2.3430 H       1  LIG11       0.0618
     60 H           4.5160   -4.3050   -0.0550 H       1  LIG11       0.0621
     61 H           5.2770   -0.1900   -1.1800 H       1  LIG11       0.0621
     62 H           5.9160   -0.9380   -3.4640 H       1  LIG11       0.0618
     63 H           5.8450   -3.3610   -4.0540 H       1  LIG11       0.0618
@<TRIPOS>BOND
     1     1     2   ar
     2     1     6   ar
     3     1    10   ar
     4     2     3   ar
     5     3     4   ar
     6     4     5   ar
     7     5     6   ar
     8     6     7   ar
     9     7     8   ar
    10     8     9   ar
    11     9    10   ar
    12     8    11    1
    13    11    12   am
    14    11    13    2
    15    10    14    1
    16    14    15    1
    17    14    16    1
    18    16    17    1
    19    15    18    1
    20    18    19    1
    21    19    20    1
    22    20    21    1
    23    17    21    1
    24    18    22    1
    25    22    23    1
    26    23    24    1
    27    24    17    1
    28    12    25    1
    29    25    26    1
    30    28    26   ar
    31    26    29   ar
    32    27    28   ar
    33    27    31   ar
    34    29    30   ar
    35    30    31   ar
    36     2    32    1
    37     3    33    1
    38     4    34    1
    39     5    35    1
    40     9    36    1
    41    12    37    1
    42    14    38    1
    43    15    39    1
    44    15    40    1
    45    16    41    1
    46    16    42    1
    47    17    43    1
    48    18    44    1
    49    19    45    1
    50    19    46    1
    51    20    47    1
    52    20    48    1
    53    21    49    1
    54    21    50    1
    55    22    51    1
    56    22    52    1
    57    23    53    1
    58    23    54    1
    59    24    55    1
    60    24    56    1
    61    25    57    1
    62    25    58    1
    63    27    59    1
    64    28    60    1
    65    29    61    1
    66    30    62    1
    67    31    63    1
