@<TRIPOS>MOLECULE
cpd14
 50 52 0 0 0
SMALL
GASTEIGER
Energy = 0

@<TRIPOS>ATOM
      1 C          -0.8653    2.5628   -0.9965 C.ar    1  LIG11       0.1119
      2 N          -1.1370    3.8294   -0.6787 N.ar    1  LIG11      -0.2205
      3 C          -2.2599    4.1717   -1.4205 C.ar    1  LIG11       0.1527
      4 C          -2.6514    3.0938   -2.1744 C.ar    1  LIG11       0.0831
      5 CL         -3.0143    5.7095   -1.3943 Cl      1  LIG11      -0.0600
      6 C          -3.8046    3.0075   -3.1350 C.3     1  LIG11       0.0872
      7 O          -3.3564    2.8427   -4.4638 O.3     1  LIG11      -0.3889
      8 C           0.2966    1.8371   -0.3781 C.3     1  LIG11       0.0057
      9 C           1.1898    2.7177    0.5095 C.3     1  LIG11      -0.0465
     10 C           2.3578    1.9173    1.1094 C.3     1  LIG11      -0.0555
     11 N          -1.7477    2.0790   -1.8908 N.ar    1  LIG11      -0.3239
     12 C          -1.7295    0.7504   -2.4664 C.3     1  LIG11       0.0498
     13 C          -1.8799   -0.2979   -1.3917 C.ar    1  LIG11      -0.0277
     14 C          -2.9822   -0.2675   -0.5354 C.ar    1  LIG11      -0.0563
     15 C          -3.0678   -1.1476    0.5422 C.ar    1  LIG11      -0.0536
     16 C          -2.0466   -2.0672    0.7875 C.ar    1  LIG11      -0.0156
     17 C          -0.9849   -2.1505   -0.1150 C.ar    1  LIG11      -0.0536
     18 C          -0.9033   -1.2765   -1.1973 C.ar    1  LIG11      -0.0563
     19 C          -2.0874   -2.9426    2.0048 C.ar    1  LIG11       0.0145
     20 C          -3.2522   -3.6753    2.2956 C.ar    1  LIG11      -0.0503
     21 C          -3.2523   -4.5374    3.4022 C.ar    1  LIG11      -0.0430
     22 C          -2.0813   -4.6116    4.1710 C.ar    1  LIG11       0.0285
     23 N          -0.9829   -3.8991    3.9340 N.ar    1  LIG11      -0.2478
     24 CA         -0.9847   -3.0854    2.8734 C.ar    1  LIG11       0.1550
     25 H          -4.4455    2.1321   -2.8743 H       1  LIG11       0.0623
     26 H          -4.4450    3.9202   -3.1031 H       1  LIG11       0.0623
     27 H          -2.9557    3.6505   -4.7396 H       1  LIG11       0.2099
     28 H          -0.1055    1.0016    0.2400 H       1  LIG11       0.0343
     29 H           0.9114    1.3987   -1.1987 H       1  LIG11       0.0343
     30 H           1.5966    3.5650   -0.0937 H       1  LIG11       0.0269
     31 H           0.5822    3.1520    1.3399 H       1  LIG11       0.0269
     32 H           2.9753    1.4819    0.2867 H       1  LIG11       0.0263
     33 H          -2.5575    0.6104   -3.1967 H       1  LIG11       0.0542
     34 H          -0.7794    0.6279   -3.0359 H       1  LIG11       0.0542
     35 H          -3.7767    0.4822   -0.6885 H       1  LIG11       0.0621
     36 H          -3.9222   -1.0670    1.2353 H       1  LIG11       0.0624
     37 H          -0.2027   -2.9173    0.0157 H       1  LIG11       0.0624
     38 H          -0.0377   -1.3400   -1.8778 H       1  LIG11       0.0621
     39 H          -4.1431   -3.6124    1.6483 H       1  LIG11       0.0625
     40 H          -4.1388   -5.1441    3.6532 H       1  LIG11       0.0633
     41 H          -2.0338   -5.2790    5.0470 H       1  LIG11       0.0830
     42 C           0.1741   -2.1602    2.6879 C.2     1  LIG11       0.3559
     43 OXT        -0.0043   -0.8289    2.6475 O.3     1  LIG11      -0.4761
     44 O           1.2996   -2.5802    2.5557 O.2     1  LIG11      -0.2434
     45 HXT        -0.9266   -0.6352    2.8699 H       1  LIG11       0.2955
     46 H           1.9590    1.0650    1.7108 H       1  LIG11       0.0263
     47 C           3.2490    2.7906    2.0023 C.3     1  LIG11      -0.0653
     48 H           4.0912    2.1975    2.4291 H       1  LIG11       0.0230
     49 H           3.6887    3.6376    1.4263 H       1  LIG11       0.0230
     50 H           2.6699    3.2175    2.8537 H       1  LIG11       0.0230
@<TRIPOS>BOND
     1    27     7    1
     2     7     6    1
     3    33    12    1
     4     6    26    1
     5     6    25    1
     6     6     4    1
     7    34    12    1
     8    12    11    1
     9    12    13    1
    10     4    11   ar
    11     4     3   ar
    12    11     1   ar
    13    38    18    1
    14     3     5    1
    15     3     2   ar
    16    13    18   ar
    17    13    14   ar
    18    29     8    1
    19    18    17   ar
    20     1     2   ar
    21     1     8    1
    22    35    14    1
    23    14    15   ar
    24     8    28    1
    25     8     9    1
    26    17    37    1
    27    17    16   ar
    28    30     9    1
    29    32    10    1
    30     9    10    1
    31     9    31    1
    32    15    16   ar
    33    15    36    1
    34    16    19    1
    35    10    46    1
    36    10    47    1
    37    49    47    1
    38    39    20    1
    39    47    48    1
    40    47    50    1
    41    19    20   ar
    42    19    24   ar
    43    20    21   ar
    44    44    42    2
    45    43    42    1
    46    43    45    1
    47    42    24    1
    48    24    23   ar
    49    21    40    1
    50    21    22   ar
    51    23    22   ar
    52    22    41    1
