@<TRIPOS>MOLECULE
cpd25
 59 61 0 0 0
SMALL
GASTEIGER
Energy = 0

@<TRIPOS>ATOM
      1 N          -1.6732    2.0261   -1.9314 N.ar    1  LIG11      -0.3239
      2 C          -0.7550    2.4843   -1.0595 C.ar    1  LIG11       0.1119
      3 N          -1.0009    3.7477   -0.7101 N.ar    1  LIG11      -0.2205
      4 C          -2.1454    4.1150   -1.4052 C.ar    1  LIG11       0.1527
      5 C          -2.5762    3.0548   -2.1629 C.ar    1  LIG11       0.0831
      6 C          -1.6947    0.7051   -2.5255 C.3     1  LIG11       0.0500
      7 CL         -2.8829    5.6590   -1.3231 Cl      1  LIG11      -0.0600
      8 C          -3.7655    2.9970   -3.0805 C.3     1  LIG11       0.0872
      9 O          -3.3696    2.8490   -4.4279 O.3     1  LIG11      -0.3889
     10 C          -1.9520   -2.0688    0.7327 C.ar    1  LIG11       0.0661
     11 C          -3.0169   -1.1963    0.4891 C.ar    1  LIG11       0.1316
     12 C          -2.9434   -0.3413   -0.6134 C.ar    1  LIG11      -0.0142
     13 C          -1.8307   -0.3518   -1.4556 C.ar    1  LIG11      -0.0208
     14 C          -0.8157   -1.2843   -1.2381 C.ar    1  LIG11      -0.0142
     15 C          -0.8502   -2.1281   -0.1259 C.ar    1  LIG11       0.1316
     16 C          -1.8511   -4.7639    4.0731 C.ar    1  LIG11      -0.0609
     17 C          -0.8693   -3.7817    3.9542 C.ar    1  LIG11      -0.0472
     18 C          -0.9433   -2.8366    2.9293 C.ar    1  LIG11       0.0667
     19 C          -1.9605   -2.9159    1.9718 C.ar    1  LIG11       0.0031
     20 C          -2.9518   -3.8902    2.1116 C.ar    1  LIG11      -0.0530
     21 C          -2.9036   -4.8064    3.1610 C.ar    1  LIG11      -0.0611
     22 C           0.0622   -1.7168    2.9070 C.2     1  LIG11       0.3374
     23 O          -0.2920   -0.4746    2.5537 O.3     1  LIG11      -0.4771
     24 O           1.2123   -1.9154    3.2154 O.2     1  LIG11      -0.2451
     25 H          -2.9704    3.6567   -4.7058 H       1  LIG11       0.2099
     26 H          -1.2575   -0.4658    2.4893 H       1  LIG11       0.2954
     27 C           0.4137    1.7319   -0.4883 C.3     1  LIG11       0.0057
     28 C           1.3435    2.5736    0.3986 C.3     1  LIG11      -0.0465
     29 C           2.5037    1.7308    0.9547 C.3     1  LIG11      -0.0555
     30 C           3.4320    2.5594    1.8523 C.3     1  LIG11      -0.0653
     31 H          -2.5449    0.5890   -3.2342 H       1  LIG11       0.0542
     32 H          -0.7650    0.5753   -3.1261 H       1  LIG11       0.0542
     33 H          -4.4066    2.1247   -2.8100 H       1  LIG11       0.0623
     34 H          -4.3936    3.9160   -3.0099 H       1  LIG11       0.0623
     35 H          -3.7365    0.3916   -0.8256 H       1  LIG11       0.0658
     36 H           0.0317   -1.3027   -1.9398 H       1  LIG11       0.0658
     37 H          -1.8022   -5.4989    4.8949 H       1  LIG11       0.0618
     38 H          -0.0604   -3.7372    4.7031 H       1  LIG11       0.0626
     39 H          -3.7579   -3.9729    1.3626 H       1  LIG11       0.0624
     40 H          -3.6856   -5.5792    3.2564 H       1  LIG11       0.0618
     41 H           1.0005    1.3016   -1.3333 H       1  LIG11       0.0343
     42 H           0.0147    0.8917    0.1240 H       1  LIG11       0.0343
     43 H           1.7563    3.4255   -0.1939 H       1  LIG11       0.0269
     44 H           0.7631    3.0013    1.2515 H       1  LIG11       0.0269
     45 H           2.0971    0.8717    1.5418 H       1  LIG11       0.0263
     46 H           3.0948    1.3025    0.1093 H       1  LIG11       0.0263
     47 H           4.2680    1.9359    2.2468 H       1  LIG11       0.0230
     48 H           3.8802    3.4111    1.2899 H       1  LIG11       0.0230
     49 H           2.8794    2.9765    2.7259 H       1  LIG11       0.0230
     50 O           0.1424   -3.0229    0.1819 O.3     1  LIG11      -0.4944
     51 O          -4.0323   -1.1717    1.4110 O.3     1  LIG11      -0.4944
     52 C           1.3996   -2.8913   -0.4338 C.3     1  LIG11       0.0788
     53 H           2.0727   -3.6256    0.0623 H       1  LIG11       0.0660
     54 H           1.3190   -3.1528   -1.5138 H       1  LIG11       0.0660
     55 H           1.7966   -1.8629   -0.2634 H       1  LIG11       0.0660
     56 C          -5.1168   -0.2967    1.2245 C.3     1  LIG11       0.0788
     57 H          -5.8139   -0.4714    2.0742 H       1  LIG11       0.0660
     58 H          -4.7599    0.7584    1.2644 H       1  LIG11       0.0660
     59 H          -5.6408   -0.5436    0.2722 H       1  LIG11       0.0660
@<TRIPOS>BOND
     1    25     9    1
     2     9     8    1
     3    31     6    1
     4    32     6    1
     5     8    34    1
     6     8    33    1
     7     8     5    1
     8     6     1    1
     9     6    13    1
    10     5     1   ar
    11     5     4   ar
    12    36    14    1
    13     1     2   ar
    14    54    52    1
    15    13    14   ar
    16    13    12   ar
    17     4     7    1
    18     4     3   ar
    19    41    27    1
    20    14    15   ar
    21     2     3   ar
    22     2    27    1
    23    35    12    1
    24    12    11   ar
    25    27    42    1
    26    27    28    1
    27    52    55    1
    28    52    53    1
    29    52    50    1
    30    43    28    1
    31    15    50    1
    32    15    10   ar
    33    46    29    1
    34    59    56    1
    35    28    29    1
    36    28    44    1
    37    11    10   ar
    38    11    51    1
    39    10    19    1
    40    29    45    1
    41    29    30    1
    42    56    58    1
    43    56    51    1
    44    56    57    1
    45    48    30    1
    46    39    20    1
    47    30    47    1
    48    30    49    1
    49    19    20   ar
    50    19    18   ar
    51    20    21   ar
    52    26    23    1
    53    23    22    1
    54    22    18    1
    55    22    24    2
    56    18    17   ar
    57    21    40    1
    58    21    16   ar
    59    17    16   ar
    60    17    38    1
    61    16    37    1
