@<TRIPOS>MOLECULE
cpd26
 61 63 0 0 0
SMALL
GASTEIGER
Energy = 0

@<TRIPOS>ATOM
      1 C           3.8572    2.4747    1.1237 C.3     1  LIG11      -0.0653
      2 H           4.7530    1.8331    1.2947 H       1  LIG11       0.0230
      3 H           4.1974    3.4015    0.6064 H       1  LIG11       0.0230
      4 H           3.4539    2.7652    2.1214 H       1  LIG11       0.0230
      5 C           2.7999    1.7342    0.2943 C.3     1  LIG11      -0.0555
      6 H           3.2462    1.4262   -0.6823 H       1  LIG11       0.0263
      7 H           2.5034    0.8005    0.8300 H       1  LIG11       0.0263
      8 C           1.5579    2.6051    0.0417 C.3     1  LIG11      -0.0450
      9 H           1.1375    2.9347    1.0227 H       1  LIG11       0.0270
     10 H           1.8612    3.5201   -0.5224 H       1  LIG11       0.0270
     11 C           0.4809    1.8409   -0.7472 C.3     1  LIG11       0.0242
     12 H           0.9227    1.5093   -1.7147 H       1  LIG11       0.0358
     13 H           0.1927    0.9538   -0.1404 H       1  LIG11       0.0358
     14 C          -0.7883    2.6406   -1.0167 C.2     1  LIG11       0.2165
     15 O          -0.8307    3.8018   -0.6509 O.2     1  LIG11      -0.2756
     16 N          -1.8848    2.0523   -1.6659 N.am    1  LIG11      -0.2834
     17 C          -3.1199    2.8631   -1.7822 C.3     1  LIG11       0.1254
     18 H          -3.9092    2.1837   -2.1802 H       1  LIG11       0.0619
     19 C          -2.9778    3.9422   -2.8558 C.2     1  LIG11       0.3257
     20 O          -2.5785    3.4308   -4.0236 O.3     1  LIG11      -0.4793
     21 O          -3.1816    5.1285   -2.7704 O.2     1  LIG11      -0.2489
     22 H          -2.5315    4.2707   -4.5147 H       1  LIG11       0.2951
     23 C          -1.7341    0.7640   -2.3552 C.3     1  LIG11       0.0406
     24 H          -2.5105    0.6685   -3.1485 H       1  LIG11       0.0514
     25 H          -0.7734    0.7262   -2.9157 H       1  LIG11       0.0514
     26 C          -3.1416   -0.6965   -0.8591 C.ar    1  LIG11      -0.0565
     27 C          -3.2622   -1.6353    0.1640 C.ar    1  LIG11      -0.0537
     28 C          -2.1330   -2.3089    0.6312 C.ar    1  LIG11      -0.0172
     29 C          -0.9234   -2.1479   -0.0464 C.ar    1  LIG11      -0.0537
     30 C          -0.8113   -1.2176   -1.0772 C.ar    1  LIG11      -0.0565
     31 C          -1.8937   -0.4011   -1.4104 C.ar    1  LIG11      -0.0300
     32 H          -4.0370   -0.1554   -1.2060 H       1  LIG11       0.0621
     33 H          -4.2407   -1.7795    0.6524 H       1  LIG11       0.0624
     34 H          -0.0393   -2.7400    0.2454 H       1  LIG11       0.0624
     35 H           0.1593   -1.0926   -1.5859 H       1  LIG11       0.0621
     36 C          -3.1552   -4.1576    1.9699 C.ar    1  LIG11      -0.0534
     37 C          -3.1630   -5.0225    3.0627 C.ar    1  LIG11      -0.0611
     38 C          -2.2086   -4.8775    4.0670 C.ar    1  LIG11      -0.0611
     39 C          -1.2743   -3.8460    3.9919 C.ar    1  LIG11      -0.0504
     40 C          -1.2829   -2.9553    2.9158 C.ar    1  LIG11       0.0282
     41 C          -2.1975   -3.1456    1.8733 C.ar    1  LIG11      -0.0072
     42 H          -3.8852   -4.3126    1.1575 H       1  LIG11       0.0624
     43 H          -3.9116   -5.8310    3.1240 H       1  LIG11       0.0618
     44 H          -2.2033   -5.5678    4.9281 H       1  LIG11       0.0618
     45 H          -0.5510   -3.7179    4.8153 H       1  LIG11       0.0625
     46 N           0.3946    0.2081    2.7940 N.ar    1  LIG11      -0.0464
     47 N           1.3328   -0.5572    3.2410 N.ar    1  LIG11      -0.0229
     48 N           0.8718   -1.8287    3.3651 N.ar    1  LIG11      -0.1084
     49 C          -0.3840   -1.7969    2.9476 C.ar    1  LIG11       0.1799
     50 N          -0.6983   -0.5551    2.6017 N.ar    1  LIG11      -0.2388
     51 H          -1.6045   -0.2275    2.2840 H       1  LIG11       0.1923
     52 C          -3.6942    3.3935   -0.4427 C.3     1  LIG11      -0.0177
     53 H          -3.0933    4.2711   -0.1027 H       1  LIG11       0.0319
     54 C          -3.6604    2.3428    0.6829 C.3     1  LIG11      -0.0605
     55 H          -4.0040    2.7796    1.6490 H       1  LIG11       0.0233
     56 H          -4.3323    1.4865    0.4549 H       1  LIG11       0.0233
     57 H          -2.6372    1.9414    0.8616 H       1  LIG11       0.0233
     58 C          -5.1483    3.8845   -0.6024 C.3     1  LIG11      -0.0605
     59 H          -5.2417    4.6964   -1.3579 H       1  LIG11       0.0233
     60 H          -5.8233    3.0555   -0.9163 H       1  LIG11       0.0233
     61 H          -5.5433    4.2921    0.3569 H       1  LIG11       0.0233
@<TRIPOS>BOND
     1    22    20    1
     2    20    19    1
     3    24    23    1
     4    25    23    1
     5    19    21    2
     6    19    17    1
     7    23    16    1
     8    23    31    1
     9    18    17    1
    10    17    16    1
    11    17    52    1
    12    12    11    1
    13    16    14   am
    14    35    30    1
    15    31    30   ar
    16    31    26   ar
    17    59    58    1
    18    32    26    1
    19    30    29   ar
    20    14    11    1
    21    14    15    2
    22    60    58    1
    23    26    27   ar
    24    11    13    1
    25    11     8    1
    26     6     5    1
    27    58    52    1
    28    58    61    1
    29    10     8    1
    30    52    53    1
    31    52    54    1
    32    29    34    1
    33    29    28   ar
    34     8     5    1
    35     8     9    1
    36    27    28   ar
    37    27    33    1
    38     5     7    1
    39     5     1    1
    40    56    54    1
    41     3     1    1
    42    28    41    1
    43    54    57    1
    44    54    55    1
    45     1     2    1
    46     1     4    1
    47    42    36    1
    48    41    36   ar
    49    41    40   ar
    50    36    37   ar
    51    51    50    1
    52    50    46   ar
    53    50    49   ar
    54    46    47   ar
    55    40    49    1
    56    40    39   ar
    57    49    48   ar
    58    37    43    1
    59    37    38   ar
    60    47    48   ar
    61    39    38   ar
    62    39    45    1
    63    38    44    1
