@<TRIPOS>MOLECULE
cpd27
 52 54 0 0 0
SMALL
GASTEIGER
Energy = 0

@<TRIPOS>ATOM
      1 C          -2.6551    2.8140   -2.6976 C.2     1  LIG11       0.2274
      2 C          -2.9088    4.1478   -2.3511 C.3     1  LIG11       0.0895
      3 C          -2.0009    4.6892   -1.4377 C.2     1  LIG11       0.0260
      4 N          -1.0071    3.9642   -0.9407 N.2     1  LIG11      -0.2619
      5 C          -0.8536    2.7035   -1.3298 C.3     1  LIG11       0.1708
      6 N          -1.6271    2.0999   -2.2347 N.am    1  LIG11      -0.2687
      7 C           0.2881    1.9946   -0.6268 C.3     1  LIG11      -0.0070
      8 C          -1.3982    0.7351   -2.7023 C.3     1  LIG11       0.0421
      9 O          -3.4512    2.3134   -3.4746 O.2     1  LIG11      -0.2748
     10 C           1.1334    2.8664    0.3187 C.3     1  LIG11      -0.0495
     11 C           2.2589    2.0553    0.9833 C.3     1  LIG11      -0.0558
     12 C           3.1005    2.9183    1.9329 C.3     1  LIG11      -0.0653
     13 C          -2.0508   -1.9989    0.5794 C.ar    1  LIG11      -0.0171
     14 C          -3.0503   -1.1042    0.1933 C.ar    1  LIG11      -0.0537
     15 C          -2.8534   -0.2479   -0.8890 C.ar    1  LIG11      -0.0565
     16 C          -1.6564   -0.2722   -1.6073 C.ar    1  LIG11      -0.0300
     17 C          -0.6949   -1.2289   -1.2752 C.ar    1  LIG11      -0.0565
     18 C          -0.8876   -2.0796   -0.1883 C.ar    1  LIG11      -0.0537
     19 C          -3.5138   -4.5452    2.9649 C.ar    1  LIG11      -0.0611
     20 C          -2.4707   -4.7315    3.8691 C.ar    1  LIG11      -0.0609
     21 C          -1.3182   -3.9550    3.7643 C.ar    1  LIG11      -0.0472
     22 C          -1.2073   -2.9913    2.7599 C.ar    1  LIG11       0.0665
     23 C          -2.2182   -2.8544    1.8013 C.ar    1  LIG11      -0.0039
     24 C          -3.3833   -3.6145    1.9355 C.ar    1  LIG11      -0.0532
     25 C          -0.0207   -2.0646    2.7902 C.2     1  LIG11       0.3374
     26 O          -0.1343   -0.7726    2.4558 O.3     1  LIG11      -0.4771
     27 O           1.0646   -2.4702    3.1287 O.2     1  LIG11      -0.2451
     28 H          -1.0771   -0.5890    2.3397 H       1  LIG11       0.2954
     29 H          -3.7534    4.7326   -2.7540 H       1  LIG11       0.0466
     30 H          -0.1409    1.1631   -0.0222 H       1  LIG11       0.0306
     31 H           0.9683    1.5596   -1.3956 H       1  LIG11       0.0306
     32 H          -2.0426    0.4526   -3.5659 H       1  LIG11       0.0515
     33 H          -0.3572    0.6637   -3.0937 H       1  LIG11       0.0515
     34 H           1.5843    3.7136   -0.2527 H       1  LIG11       0.0266
     35 H           0.4838    3.2988    1.1181 H       1  LIG11       0.0266
     36 H           1.8202    1.2022    1.5555 H       1  LIG11       0.0263
     37 H           2.9227    1.6202    0.1973 H       1  LIG11       0.0263
     38 H           3.9120    2.3176    2.4060 H       1  LIG11       0.0230
     39 H           3.5789    3.7654    1.3889 H       1  LIG11       0.0230
     40 H           2.4742    3.3444    2.7506 H       1  LIG11       0.0230
     41 H          -3.9820   -1.0243    0.7785 H       1  LIG11       0.0624
     42 H          -3.6432    0.4736   -1.1562 H       1  LIG11       0.0621
     43 H           0.2446   -1.2941   -1.8493 H       1  LIG11       0.0621
     44 H          -0.1102   -2.8231    0.0565 H       1  LIG11       0.0624
     45 H          -4.4324   -5.1512    3.0498 H       1  LIG11       0.0618
     46 H          -2.5644   -5.4792    4.6753 H       1  LIG11       0.0618
     47 H          -0.5187   -4.0816    4.5141 H       1  LIG11       0.0626
     48 H          -4.1938   -3.5288    1.1919 H       1  LIG11       0.0624
     49 C          -2.1214    6.1151   -0.9640 C.3     1  LIG11      -0.0258
     50 H          -2.9828    6.6449   -1.4307 H       1  LIG11       0.0289
     51 H          -2.2626    6.1421    0.1407 H       1  LIG11       0.0289
     52 H          -1.1962    6.6823   -1.2153 H       1  LIG11       0.0289
@<TRIPOS>BOND
     1    32     8    1
     2     9     1    2
     3    33     8    1
     4    29     2    1
     5     8     6    1
     6     8    16    1
     7     1     2    1
     8     1     6   am
     9     2     3    1
    10     6     5    1
    11    43    17    1
    12    16    17   ar
    13    16    15   ar
    14     3    49    1
    15     3     4    2
    16    50    49    1
    17    31     7    1
    18     5     4    1
    19     5     7    1
    20    17    18   ar
    21    52    49    1
    22    42    15    1
    23    49    51    1
    24    15    14   ar
    25     7    30    1
    26     7    10    1
    27    34    10    1
    28    18    44    1
    29    18    13   ar
    30    14    13   ar
    31    14    41    1
    32    37    11    1
    33    10    11    1
    34    10    35    1
    35    13    23    1
    36    11    36    1
    37    11    12    1
    38    48    24    1
    39    39    12    1
    40    23    24   ar
    41    23    22   ar
    42    12    38    1
    43    12    40    1
    44    24    19   ar
    45    28    26    1
    46    26    25    1
    47    22    25    1
    48    22    21   ar
    49    25    27    2
    50    19    45    1
    51    19    20   ar
    52    21    20   ar
    53    21    47    1
    54    20    46    1
