@<TRIPOS>MOLECULE
cpd8
 48 50 0 0 0
SMALL
GASTEIGER
Energy = 0

@<TRIPOS>ATOM
      1 C          -0.7226    2.6719   -1.0207 C.ar    1  LIG11       0.1119
      2 N          -1.0576    3.9239   -0.7059 N.ar    1  LIG11      -0.2205
      3 C          -2.2247    4.1898   -1.4098 C.ar    1  LIG11       0.1527
      4 C          -2.5769    3.0822   -2.1400 C.ar    1  LIG11       0.0831
      5 N          -1.6006    2.1291   -1.8845 N.ar    1  LIG11      -0.3239
      6 C          -2.0305   -2.0485    0.8221 C.ar    1  LIG11       0.0181
      7 C          -3.0314   -1.1231    0.5147 C.ar    1  LIG11      -0.0507
      8 C          -2.8764   -0.2194   -0.5355 C.ar    1  LIG11      -0.0562
      9 C          -1.7249   -0.2353   -1.3236 C.ar    1  LIG11      -0.0277
     10 C          -0.7602   -1.2120   -1.0720 C.ar    1  LIG11      -0.0562
     11 C          -0.9176   -2.1121   -0.0191 C.ar    1  LIG11      -0.0507
     12 C          -3.3755   -4.1829    3.4119 C.ar    1  LIG11       0.0934
     13 C          -2.0967   -4.5050    3.6222 C.ar    1  LIG11      -0.0092
     14 C          -1.3507   -3.6933    2.6613 C.ar    1  LIG11       0.1044
     15 C          -2.2299   -2.9613    1.9561 C.ar    1  LIG11       0.1487
     16 O          -3.4830   -3.2589    2.4174 O.2     1  LIG11      -0.4621
     17 C          -1.5376    0.7858   -2.4191 C.3     1  LIG11       0.0498
     18 C           0.1270   -3.7148    2.5682 C.2     1  LIG11       0.3405
     19 O           0.8165   -2.5786    2.4044 O.3     1  LIG11      -0.4770
     20 O           0.7355   -4.7461    2.7183 O.2     1  LIG11      -0.2450
     21 CL         -3.0707    5.6787   -1.3682 Cl      1  LIG11      -0.0600
     22 C          -3.7563    2.9171   -3.0577 C.3     1  LIG11       0.0872
     23 O          -3.3473    2.7886   -4.4030 O.3     1  LIG11      -0.3889
     24 C           0.4997    2.0200   -0.4380 C.3     1  LIG11       0.0057
     25 C           1.3542    2.9545    0.4327 C.3     1  LIG11      -0.0465
     26 C           2.5871    2.2323    1.0006 C.3     1  LIG11      -0.0555
     27 C           3.4418    3.1620    1.8723 C.3     1  LIG11      -0.0653
     28 H          -3.9457   -1.0652    1.1294 H       1  LIG11       0.0625
     29 H          -3.6678    0.5229   -0.7330 H       1  LIG11       0.0621
     30 H           0.1404   -1.2758   -1.7055 H       1  LIG11       0.0621
     31 H          -0.1742   -2.9172    0.0896 H       1  LIG11       0.0625
     32 H          -0.5598    0.6586   -2.9383 H       1  LIG11       0.0542
     33 H          -2.3238    0.6171   -3.1887 H       1  LIG11       0.0542
     34 H           0.1549   -1.8716    2.3938 H       1  LIG11       0.2954
     35 H          -4.4575    3.7823   -2.9968 H       1  LIG11       0.0623
     36 H          -4.3250    1.9982   -2.7800 H       1  LIG11       0.0623
     37 H          -3.0158    3.6237   -4.6890 H       1  LIG11       0.2099
     38 H           0.1694    1.1535    0.1803 H       1  LIG11       0.0343
     39 H           1.1211    1.6293   -1.2775 H       1  LIG11       0.0343
     40 H           1.6893    3.8291   -0.1756 H       1  LIG11       0.0269
     41 H           0.7393    3.3449    1.2794 H       1  LIG11       0.0269
     42 H           2.2600    1.3551    1.6100 H       1  LIG11       0.0263
     43 H           3.2109    1.8393    0.1615 H       1  LIG11       0.0263
     44 H           4.3318    2.6252    2.2765 H       1  LIG11       0.0230
     45 H           3.8103    4.0360    1.2868 H       1  LIG11       0.0230
     46 H           2.8580    3.5500    2.7390 H       1  LIG11       0.0230
     47 H          -1.6968   -5.2209    4.3587 H       1  LIG11       0.0657
     48 H          -4.3093   -4.5248    3.8865 H       1  LIG11       0.1030
@<TRIPOS>BOND
     1    37    23    1
     2    23    22    1
     3    33    17    1
     4    22    35    1
     5    22    36    1
     6    22     4    1
     7    32    17    1
     8    17     5    1
     9    17     9    1
    10     4     5   ar
    11     4     3   ar
    12     5     1   ar
    13    30    10    1
    14     3    21    1
    15     3     2   ar
    16     9    10   ar
    17     9     8   ar
    18    39    24    1
    19    10    11   ar
    20     1     2   ar
    21     1    24    1
    22    29     8    1
    23     8     7   ar
    24    24    38    1
    25    24    25    1
    26    40    25    1
    27    11    31    1
    28    11     6   ar
    29    43    26    1
    30    25    26    1
    31    25    41    1
    32     7     6   ar
    33     7    28    1
    34     6    15    1
    35    26    42    1
    36    26    27    1
    37    45    27    1
    38    27    44    1
    39    27    46    1
    40    15    16   ar
    41    15    14   ar
    42    34    19    1
    43    19    18    1
    44    16    12   ar
    45    18    14    1
    46    18    20    2
    47    14    13   ar
    48    12    13   ar
    49    12    48    1
    50    13    47    1
