@<TRIPOS>MOLECULE
01
 30 33 0 0 0
SMALL
GASTEIGER

@<TRIPOS>ATOM
      1 C           3.5520    1.3443   -0.1318 C.ar    1  LIG111     -0.0491
      2 C           4.8285    0.7717   -0.0741 C.ar    1  LIG111     -0.0610
      3 C           4.9875   -0.6060    0.0732 C.ar    1  LIG111     -0.0600
      4 C           3.8913   -1.4688    0.1708 C.ar    1  LIG111     -0.0398
      5 C           2.4508    0.5135   -0.0387 C.ar    1  LIG111      0.0447
      6 C           2.6157   -0.9043    0.1149 C.ar    1  LIG111      0.0424
      7 C           1.0009    0.7979   -0.0609 C.2     1  LIG111      0.2095
      8 C           0.3340   -0.5719    0.0939 C.2     1  LIG111      0.0922
      9 N           1.3642   -1.5239    0.1893 N.pl3   1  LIG111     -0.3103
     10 C          -0.9839   -0.8896    0.1382 C.2     1  LIG111      0.0708
     11 C          -1.4547   -2.3218    0.2855 C.2     1  LIG111      0.2508
     12 C          -2.2049   -0.0875    0.0672 C.ar    1  LIG111      0.0102
     13 C          -3.3259   -0.9981    0.1670 C.ar    1  LIG111      0.0416
     14 C          -2.4565    1.2665   -0.0603 C.ar    1  LIG111     -0.0520
     15 C          -3.7840    1.7200   -0.0912 C.ar    1  LIG111     -0.0611
     16 C          -4.8516    0.8360    0.0051 C.ar    1  LIG111     -0.0600
     17 C          -4.6390   -0.5421    0.1364 C.ar    1  LIG111     -0.0399
     18 N          -2.8588   -2.3175    0.2940 N.am    1  LIG111     -0.2809
     19 O           0.4485    1.8854   -0.1790 O.2     1  LIG111     -0.2852
     20 O          -0.7747   -3.3560    0.3850 O.2     1  LIG111     -0.2698
     21 H           3.4241    2.4312   -0.2492 H       1  LIG111      0.0625
     22 H           5.7149    1.4186   -0.1467 H       1  LIG111      0.0618
     23 H           6.0025   -1.0323    0.1155 H       1  LIG111      0.0618
     24 H           4.0346   -2.5511    0.2876 H       1  LIG111      0.0636
     25 H           1.2095   -2.4985    0.2960 H       1  LIG111      0.1523
     26 H          -1.6384    1.9989   -0.1385 H       1  LIG111      0.0624
     27 H          -3.9743    2.7989   -0.1928 H       1  LIG111      0.0618
     28 H          -5.8843    1.2161   -0.0204 H       1  LIG111      0.0618
     29 H          -5.4881   -1.2341    0.2126 H       1  LIG111      0.0636
     30 H          -3.4327   -3.1142    0.3784 H       1  LIG111      0.1552
@<TRIPOS>BOND
     1    21     1    1
     2    27    15    1
     3    19     7    2
     4    22     2    1
     5    26    14    1
     6     1     2   ar
     7     1     5   ar
     8    15    14   ar
     9    15    16   ar
    10     2     3   ar
    11     7     5    1
    12     7     8    1
    13    14    12   ar
    14     5     6   ar
    15    28    16    1
    16    16    17   ar
    17    12    10    1
    18    12    13   ar
    19     3    23    1
    20     3     4   ar
    21     8    10    2
    22     8     9    1
    23     6     4   ar
    24     6     9    1
    25    17    13   ar
    26    17    29    1
    27    10    11    1
    28    13    18    1
    29     4    24    1
    30     9    25    1
    31    11    18   am
    32    11    20    2
    33    18    30    1
