@<TRIPOS>MOLECULE
02
 33 36 0 0 0
SMALL
GASTEIGER

@<TRIPOS>ATOM
      1 C           3.5546    1.3464   -0.1100 C.ar    1  LIG111     -0.0491
      2 C           4.8292    0.7683   -0.0685 C.ar    1  LIG111     -0.0610
      3 C           4.9839   -0.6119    0.0552 C.ar    1  LIG111     -0.0600
      4 C           3.8855   -1.4726    0.1440 C.ar    1  LIG111     -0.0398
      5 C           2.4523    0.5161   -0.0246 C.ar    1  LIG111      0.0447
      6 C           2.6155   -0.9041    0.1073 C.ar    1  LIG111      0.0424
      7 C           1.0024    0.8022   -0.0426 C.2     1  LIG111      0.2095
      8 C           0.3343   -0.5685    0.0998 C.2     1  LIG111      0.0922
      9 N           1.3640   -1.5233    0.1753 N.pl3   1  LIG111     -0.3103
     10 C          -0.9833   -0.8869    0.1417 C.2     1  LIG111      0.0708
     11 C          -2.2060   -0.0870    0.0681 C.ar    1  LIG111      0.0105
     12 C          -3.3250   -1.0004    0.1727 C.ar    1  LIG111      0.0417
     13 C          -2.4581    1.2634   -0.0705 C.ar    1  LIG111     -0.0491
     14 C          -3.7887    1.7257   -0.1076 C.ar    1  LIG111     -0.0498
     15 C          -4.8514    0.8305   -0.0059 C.ar    1  LIG111     -0.0570
     16 C          -4.6371   -0.5447    0.1369 C.ar    1  LIG111     -0.0396
     17 C          -1.4533   -2.3194    0.2918 C.2     1  LIG111      0.2508
     18 N          -2.8552   -2.3185    0.3065 N.am    1  LIG111     -0.2809
     19 O           0.4509    1.8915   -0.1479 O.2     1  LIG111     -0.2852
     20 O          -0.7724   -3.3527    0.3936 O.2     1  LIG111     -0.2698
     21 C          -4.0353    3.1792   -0.2579 C.3     1  LIG111     -0.0397
     22 H           3.4276    2.4353   -0.2089 H       1  LIG111      0.0625
     23 H           5.7177    1.4128   -0.1346 H       1  LIG111      0.0618
     24 H           5.9978   -1.0420    0.0847 H       1  LIG111      0.0618
     25 H           4.0251   -2.5572    0.2413 H       1  LIG111      0.0636
     26 H           1.2081   -2.4993    0.2661 H       1  LIG111      0.1523
     27 H          -1.6412    1.9971   -0.1535 H       1  LIG111      0.0627
     28 H          -5.8867    1.2042   -0.0361 H       1  LIG111      0.0621
     29 H          -5.4868   -1.2360    0.2164 H       1  LIG111      0.0636
     30 H          -3.4275   -3.1155    0.3967 H       1  LIG111      0.1552
     31 H          -5.1289    3.4086   -0.2647 H       1  LIG111      0.0278
     32 H          -3.5615    3.7417    0.5852 H       1  LIG111      0.0278
     33 H          -3.5910    3.5498   -1.2156 H       1  LIG111      0.0278
@<TRIPOS>BOND
     1    33    21    1
     2    31    21    1
     3    21    14    1
     4    21    32    1
     5    22     1    1
     6    27    13    1
     7    19     7    2
     8    23     2    1
     9     1     2   ar
    10     1     5   ar
    11    14    13   ar
    12    14    15   ar
    13    13    11   ar
    14     2     3   ar
    15     7     5    1
    16     7     8    1
    17    28    15    1
    18     5     6   ar
    19    15    16   ar
    20     3    24    1
    21     3     4   ar
    22    11    10    1
    23    11    12   ar
    24     8    10    2
    25     8     9    1
    26     6     4   ar
    27     6     9    1
    28    16    12   ar
    29    16    29    1
    30    10    17    1
    31     4    25    1
    32    12    18    1
    33     9    26    1
    34    17    18   am
    35    17    20    2
    36    18    30    1
