@<TRIPOS>MOLECULE
03
 30 33 0 0 0
SMALL
GASTEIGER

@<TRIPOS>ATOM
      1 C           3.5539    1.3437   -0.1367 C.ar    1  LIG111     -0.0491
      2 C           4.8299    0.7677   -0.0930 C.ar    1  LIG111     -0.0610
      3 C           4.9873   -0.6098    0.0540 C.ar    1  LIG111     -0.0600
      4 C           3.8903   -1.4708    0.1625 C.ar    1  LIG111     -0.0398
      5 C           2.4524    0.5149   -0.0313 C.ar    1  LIG111      0.0447
      6 C           2.6161   -0.9032    0.1189 C.ar    1  LIG111      0.0424
      7 C           1.0030    0.8017   -0.0408 C.2     1  LIG111      0.2095
      8 C           0.3348   -0.5695    0.1101 C.2     1  LIG111      0.0922
      9 N           1.3630   -1.5211    0.2046 N.pl3   1  LIG111     -0.3103
     10 C          -0.9839   -0.8870    0.1510 C.2     1  LIG111      0.0708
     11 C          -2.2055   -0.0855    0.0754 C.ar    1  LIG111      0.0116
     12 C          -3.3260   -0.9990    0.1587 C.ar    1  LIG111      0.0417
     13 C          -2.4515    1.2689   -0.0476 C.ar    1  LIG111     -0.0337
     14 C          -3.7855    1.7146   -0.0901 C.ar    1  LIG111      0.0417
     15 C          -4.8599    0.8311   -0.0117 C.ar    1  LIG111     -0.0416
     16 C          -4.6397   -0.5446    0.1150 C.ar    1  LIG111     -0.0385
     17 C          -1.4537   -2.3193    0.2895 C.2     1  LIG111      0.2508
     18 N          -2.8591   -2.3170    0.2825 N.am    1  LIG111     -0.2809
     19 O           0.4495    1.8895   -0.1451 O.2     1  LIG111     -0.2852
     20 O          -0.7750   -3.3533    0.3921 O.2     1  LIG111     -0.2698
     21 CL         -4.0867    3.3827   -0.2419 Cl      1  LIG111     -0.0835
     22 H           3.4272    2.4310   -0.2521 H       1  LIG111      0.0625
     23 H           5.7170    1.4125   -0.1757 H       1  LIG111      0.0618
     24 H           6.0019   -1.0385    0.0860 H       1  LIG111      0.0618
     25 H           4.0324   -2.5535    0.2777 H       1  LIG111      0.0636
     26 H           1.2087   -2.4975    0.2976 H       1  LIG111      0.1523
     27 H          -1.6322    2.0030   -0.1125 H       1  LIG111      0.0639
     28 H          -5.8940    1.2082   -0.0484 H       1  LIG111      0.0633
     29 H          -5.4891   -1.2382    0.1781 H       1  LIG111      0.0637
     30 H          -3.4329   -3.1144    0.3646 H       1  LIG111      0.1552
@<TRIPOS>BOND
     1    22     1    1
     2    21    14    1
     3    23     2    1
     4    19     7    2
     5     1     2   ar
     6     1     5   ar
     7    27    13    1
     8     2     3   ar
     9    14    13   ar
    10    14    15   ar
    11    28    15    1
    12    13    11   ar
    13     7     5    1
    14     7     8    1
    15     5     6   ar
    16    15    16   ar
    17     3    24    1
    18     3     4   ar
    19    11    10    1
    20    11    12   ar
    21     8    10    2
    22     8     9    1
    23    16    12   ar
    24    16    29    1
    25     6     4   ar
    26     6     9    1
    27    10    17    1
    28    12    18    1
    29     4    25    1
    30     9    26    1
    31    18    17   am
    32    18    30    1
    33    17    20    2
