@<TRIPOS>MOLECULE
05
 30 33 0 0 0
SMALL
GASTEIGER

@<TRIPOS>ATOM
      1 C           3.5479    1.3452   -0.1333 C.ar    1  LIG111     -0.0351
      2 C           4.8285    0.7719   -0.0897 C.ar    1  LIG111      0.0187
      3 C           4.9869   -0.6106    0.0556 C.ar    1  LIG111     -0.0460
      4 C           3.8913   -1.4696    0.1612 C.ar    1  LIG111     -0.0388
      5 C           2.4508    0.5125   -0.0303 C.ar    1  LIG111      0.0457
      6 C           2.6134   -0.9062    0.1179 C.ar    1  LIG111      0.0425
      7 C           1.0004    0.7999   -0.0412 C.2     1  LIG111      0.2096
      8 C           0.3336   -0.5690    0.1070 C.2     1  LIG111      0.0922
      9 N           1.3654   -1.5237    0.2013 N.pl3   1  LIG111     -0.3103
     10 C          -0.9832   -0.8873    0.1478 C.2     1  LIG111      0.0708
     11 C          -2.2048   -0.0861    0.0737 C.ar    1  LIG111      0.0102
     12 C          -3.3251   -0.9986    0.1619 C.ar    1  LIG111      0.0416
     13 C          -2.4562    1.2681   -0.0531 C.ar    1  LIG111     -0.0520
     14 C          -3.7838    1.7201   -0.0936 C.ar    1  LIG111     -0.0611
     15 C          -4.8509    0.8343   -0.0090 C.ar    1  LIG111     -0.0600
     16 C          -4.6385   -0.5440    0.1210 C.ar    1  LIG111     -0.0399
     17 C          -1.4544   -2.3217    0.2893 C.2     1  LIG111      0.2508
     18 N          -2.8578   -2.3183    0.2865 N.am    1  LIG111     -0.2809
     19 O           0.4508    1.8898   -0.1450 O.2     1  LIG111     -0.2852
     20 O          -0.7725   -3.3542    0.3905 O.2     1  LIG111     -0.2698
     21 BR          6.3364    1.8704   -0.2271 Br      1  LIG111     -0.0503
     22 H           3.4098    2.4330   -0.2472 H       1  LIG111      0.0636
     23 H           6.0001   -1.0460    0.0887 H       1  LIG111      0.0629
     24 H           4.0375   -2.5522    0.2746 H       1  LIG111      0.0637
     25 H           1.2085   -2.4998    0.2946 H       1  LIG111      0.1523
     26 H          -1.6380    2.0013   -0.1226 H       1  LIG111      0.0624
     27 H          -3.9748    2.7989   -0.1953 H       1  LIG111      0.0618
     28 H          -5.8840    1.2130   -0.0437 H       1  LIG111      0.0618
     29 H          -5.4873   -1.2373    0.1885 H       1  LIG111      0.0636
     30 H          -3.4315   -3.1152    0.3722 H       1  LIG111      0.1552
@<TRIPOS>BOND
     1    22     1    1
     2    21     2    1
     3    27    14    1
     4    19     7    2
     5     1     2   ar
     6     1     5   ar
     7    26    13    1
     8    14    13   ar
     9    14    15   ar
    10     2     3   ar
    11    13    11   ar
    12    28    15    1
    13     7     5    1
    14     7     8    1
    15     5     6   ar
    16    15    16   ar
    17     3    23    1
    18     3     4   ar
    19    11    10    1
    20    11    12   ar
    21     8    10    2
    22     8     9    1
    23     6     4   ar
    24     6     9    1
    25    16    12   ar
    26    16    29    1
    27    10    17    1
    28     4    24    1
    29    12    18    1
    30     9    25    1
    31    18    17   am
    32    18    30    1
    33    17    20    2
