@<TRIPOS>MOLECULE
06
 34 37 0 0 0
SMALL
GASTEIGER

@<TRIPOS>ATOM
      1 C           3.5515    1.3451   -0.1267 C.ar    1  LIG111     -0.0491
      2 C           4.8285    0.7728   -0.0803 C.ar    1  LIG111     -0.0610
      3 C           4.9884   -0.6055    0.0601 C.ar    1  LIG111     -0.0600
      4 C           3.8931   -1.4695    0.1596 C.ar    1  LIG111     -0.0398
      5 C           2.4514    0.5133   -0.0305 C.ar    1  LIG111      0.0447
      6 C           2.6171   -0.9053    0.1139 C.ar    1  LIG111      0.0424
      7 C           1.0017    0.7978   -0.0457 C.2     1  LIG111      0.2095
      8 C           0.3356   -0.5732    0.1007 C.2     1  LIG111      0.0922
      9 N           1.3659   -1.5256    0.1902 N.pl3   1  LIG111     -0.3103
     10 C          -0.9824   -0.8903    0.1433 C.2     1  LIG111      0.0708
     11 C          -2.2018   -0.0875    0.0707 C.ar    1  LIG111      0.0103
     12 C          -3.3243   -0.9948    0.1664 C.ar    1  LIG111      0.0422
     13 C          -2.4570    1.2656   -0.0601 C.ar    1  LIG111     -0.0515
     14 C          -3.7812    1.7178   -0.0970 C.ar    1  LIG111     -0.0539
     15 C          -4.8676    0.8392   -0.0049 C.ar    1  LIG111     -0.0238
     16 C          -4.6372   -0.5432    0.1293 C.ar    1  LIG111     -0.0327
     17 C          -1.4553   -2.3220    0.2893 C.2     1  LIG111      0.2508
     18 N          -2.8593   -2.3158    0.2943 N.am    1  LIG111     -0.2809
     19 O           0.4483    1.8860   -0.1519 O.2     1  LIG111     -0.2852
     20 O          -0.7762   -3.3566    0.3906 O.2     1  LIG111     -0.2698
     21 C          -6.2164    1.3842   -0.0513 C.2     1  LIG111     -0.0616
     22 C          -7.3499    0.6848    0.0294 C.2     1  LIG111     -0.0981
     23 H           3.4200    2.4324   -0.2364 H       1  LIG111      0.0625
     24 H           5.7142    1.4202   -0.1556 H       1  LIG111      0.0618
     25 H           6.0038   -1.0320    0.0941 H       1  LIG111      0.0618
     26 H           4.0378   -2.5524    0.2698 H       1  LIG111      0.0636
     27 H           1.2110   -2.5010    0.2895 H       1  LIG111      0.1523
     28 H          -1.6400    1.9999   -0.1362 H       1  LIG111      0.0624
     29 H          -3.9664    2.7981   -0.2017 H       1  LIG111      0.0624
     30 H          -5.4777   -1.2465    0.2025 H       1  LIG111      0.0642
     31 H          -3.4348   -3.1114    0.3779 H       1  LIG111      0.1552
     32 H          -6.2602    2.4838   -0.1647 H       1  LIG111      0.0618
     33 H          -8.3314    1.1759   -0.0142 H       1  LIG111      0.0535
     34 H          -7.3878   -0.4058    0.1430 H       1  LIG111      0.0535
@<TRIPOS>BOND
     1    23     1    1
     2    29    14    1
     3    32    21    1
     4    24     2    1
     5    19     7    2
     6    28    13    1
     7     1     2   ar
     8     1     5   ar
     9    14    13   ar
    10    14    15   ar
    11     2     3   ar
    12    13    11   ar
    13    21    15    1
    14    21    22    2
    15     7     5    1
    16     7     8    1
    17     5     6   ar
    18    33    22    1
    19    15    16   ar
    20    22    34    1
    21     3    25    1
    22     3     4   ar
    23    11    10    1
    24    11    12   ar
    25     8    10    2
    26     8     9    1
    27     6     4   ar
    28     6     9    1
    29    16    12   ar
    30    16    30    1
    31    10    17    1
    32     4    26    1
    33    12    18    1
    34     9    27    1
    35    17    18   am
    36    17    20    2
    37    18    31    1
