@<TRIPOS>MOLECULE
10
 30 33 0 0 0
SMALL
GASTEIGER

@<TRIPOS>ATOM
      1 C           3.5529    1.3424   -0.1285 C.ar    1  LIG111     -0.0480
      2 C           4.8303    0.7696   -0.0888 C.ar    1  LIG111     -0.0470
      3 C           4.9881   -0.6118    0.0516 C.ar    1  LIG111      0.0197
      4 C           3.8882   -1.4736    0.1567 C.ar    1  LIG111     -0.0259
      5 C           2.4506    0.5161   -0.0270 C.ar    1  LIG111      0.0447
      6 C           2.6146   -0.9024    0.1166 C.ar    1  LIG111      0.0435
      7 C           0.9993    0.8019   -0.0370 C.2     1  LIG111      0.2095
      8 C           0.3338   -0.5680    0.1076 C.2     1  LIG111      0.0922
      9 N           1.3652   -1.5215    0.2016 N.pl3   1  LIG111     -0.3103
     10 C          -0.9833   -0.8868    0.1471 C.2     1  LIG111      0.0708
     11 C          -2.2052   -0.0859    0.0734 C.ar    1  LIG111      0.0102
     12 C          -3.3252   -0.9988    0.1645 C.ar    1  LIG111      0.0416
     13 C          -2.4579    1.2676   -0.0576 C.ar    1  LIG111     -0.0520
     14 C          -3.7860    1.7188   -0.0984 C.ar    1  LIG111     -0.0611
     15 C          -4.8525    0.8326   -0.0098 C.ar    1  LIG111     -0.0600
     16 C          -4.6389   -0.5450    0.1238 C.ar    1  LIG111     -0.0399
     17 C          -1.4537   -2.3210    0.2892 C.2     1  LIG111      0.2508
     18 N          -2.8574   -2.3181    0.2899 N.am    1  LIG111     -0.2809
     19 O           0.4496    1.8920   -0.1379 O.2     1  LIG111     -0.2852
     20 O          -0.7717   -3.3535    0.3884 O.2     1  LIG111     -0.2698
     21 BR          6.7148   -1.3420    0.1013 Br      1  LIG111     -0.0502
     22 H           3.4304    2.4311   -0.2393 H       1  LIG111      0.0626
     23 H           5.7124    1.4236   -0.1696 H       1  LIG111      0.0629
     24 H           4.0204   -2.5596    0.2666 H       1  LIG111      0.0647
     25 H           1.2098   -2.4988    0.2836 H       1  LIG111      0.1523
     26 H          -1.6408    2.0015   -0.1297 H       1  LIG111      0.0624
     27 H          -3.9778    2.7972   -0.2029 H       1  LIG111      0.0618
     28 H          -5.8857    1.2108   -0.0444 H       1  LIG111      0.0618
     29 H          -5.4872   -1.2387    0.1938 H       1  LIG111      0.0636
     30 H          -3.4304   -3.1152    0.3796 H       1  LIG111      0.1552
@<TRIPOS>BOND
     1    22     1    1
     2    27    14    1
     3    23     2    1
     4    19     7    2
     5    26    13    1
     6     1     2   ar
     7     1     5   ar
     8    14    13   ar
     9    14    15   ar
    10     2     3   ar
    11    13    11   ar
    12    28    15    1
    13     7     5    1
    14     7     8    1
    15     5     6   ar
    16    15    16   ar
    17     3    21    1
    18     3     4   ar
    19    11    10    1
    20    11    12   ar
    21     8    10    2
    22     8     9    1
    23     6     4   ar
    24     6     9    1
    25    16    12   ar
    26    16    29    1
    27    10    17    1
    28     4    24    1
    29    12    18    1
    30     9    25    1
    31    17    18   am
    32    17    20    2
    33    18    30    1
