@<TRIPOS>MOLECULE
11
 30 33 0 0 0
SMALL
GASTEIGER

@<TRIPOS>ATOM
      1 C           3.5495    1.3449   -0.1366 C.ar    1  LIG111     -0.0351
      2 C           4.8300    0.7710   -0.0882 C.ar    1  LIG111      0.0187
      3 C           4.9874   -0.6111    0.0605 C.ar    1  LIG111     -0.0460
      4 C           3.8907   -1.4696    0.1657 C.ar    1  LIG111     -0.0388
      5 C           2.4521    0.5124   -0.0334 C.ar    1  LIG111      0.0457
      6 C           2.6140   -0.9057    0.1185 C.ar    1  LIG111      0.0425
      7 C           1.0022    0.8007   -0.0467 C.2     1  LIG111      0.2096
      8 C           0.3340   -0.5689    0.1053 C.2     1  LIG111      0.0922
      9 N           1.3641   -1.5228    0.2012 N.pl3   1  LIG111     -0.3103
     10 C          -0.9835   -0.8867    0.1465 C.2     1  LIG111      0.0708
     11 C          -2.2063   -0.0866    0.0733 C.ar    1  LIG111      0.0113
     12 C          -3.3252   -1.0007    0.1617 C.ar    1  LIG111      0.0417
     13 C          -2.4548    1.2676   -0.0512 C.ar    1  LIG111     -0.0380
     14 C          -3.7855    1.7216   -0.0904 C.ar    1  LIG111      0.0186
     15 C          -4.8546    0.8320   -0.0066 C.ar    1  LIG111     -0.0460
     16 C          -4.6383   -0.5439    0.1212 C.ar    1  LIG111     -0.0388
     17 C          -1.4530   -2.3204    0.2877 C.2     1  LIG111      0.2508
     18 N          -2.8588   -2.3179    0.2859 N.am    1  LIG111     -0.2809
     19 O           0.4513    1.8888   -0.1548 O.2     1  LIG111     -0.2852
     20 O          -0.7732   -3.3534    0.3889 O.2     1  LIG111     -0.2698
     21 BR         -4.1196    3.5571   -0.2583 Br      1  LIG111     -0.0503
     22 BR          6.3383    1.8686   -0.2247 Br      1  LIG111     -0.0503
     23 H           3.4120    2.4325   -0.2536 H       1  LIG111      0.0636
     24 H           6.0004   -1.0473    0.0970 H       1  LIG111      0.0629
     25 H           4.0366   -2.5521    0.2820 H       1  LIG111      0.0637
     26 H           1.2085   -2.4989    0.2981 H       1  LIG111      0.1523
     27 H          -1.6291    1.9953   -0.1193 H       1  LIG111      0.0635
     28 H          -5.8923    1.2024   -0.0396 H       1  LIG111      0.0629
     29 H          -5.4889   -1.2358    0.1877 H       1  LIG111      0.0637
     30 H          -3.4319   -3.1159    0.3701 H       1  LIG111      0.1552
@<TRIPOS>BOND
     1    21    14    1
     2    23     1    1
     3    22     2    1
     4    19     7    2
     5     1     2   ar
     6     1     5   ar
     7    27    13    1
     8    14    13   ar
     9    14    15   ar
    10     2     3   ar
    11    13    11   ar
    12     7     5    1
    13     7     8    1
    14    28    15    1
    15     5     6   ar
    16    15    16   ar
    17     3    24    1
    18     3     4   ar
    19    11    10    1
    20    11    12   ar
    21     8    10    2
    22     8     9    1
    23     6     4   ar
    24     6     9    1
    25    16    12   ar
    26    16    29    1
    27    10    17    1
    28    12    18    1
    29     4    25    1
    30     9    26    1
    31    18    17   am
    32    18    30    1
    33    17    20    2
