@<TRIPOS>MOLECULE
12
 30 33 0 0 0
SMALL
GASTEIGER

@<TRIPOS>ATOM
      1 C           3.5522    1.3441   -0.1211 C.ar    1  LIG111     -0.0480
      2 C           4.8298    0.7720   -0.0770 C.ar    1  LIG111     -0.0470
      3 C           4.9887   -0.6095    0.0593 C.ar    1  LIG111      0.0197
      4 C           3.8884   -1.4728    0.1559 C.ar    1  LIG111     -0.0259
      5 C           2.4504    0.5162   -0.0278 C.ar    1  LIG111      0.0447
      6 C           2.6153   -0.9025    0.1117 C.ar    1  LIG111      0.0435
      7 C           0.9992    0.8008   -0.0420 C.2     1  LIG111      0.2095
      8 C           0.3345   -0.5714    0.0984 C.2     1  LIG111      0.0922
      9 N           1.3647   -1.5236    0.1863 N.pl3   1  LIG111     -0.3103
     10 C          -0.9833   -0.8894    0.1414 C.2     1  LIG111      0.0708
     11 C          -2.2036   -0.0869    0.0692 C.ar    1  LIG111      0.0103
     12 C          -3.3247   -0.9973    0.1711 C.ar    1  LIG111      0.0427
     13 C          -2.4576    1.2648   -0.0674 C.ar    1  LIG111     -0.0510
     14 C          -3.7839    1.7208   -0.1033 C.ar    1  LIG111     -0.0471
     15 C          -4.8531    0.8350   -0.0033 C.ar    1  LIG111      0.0197
     16 C          -4.6385   -0.5454    0.1357 C.ar    1  LIG111     -0.0259
     17 C          -1.4546   -2.3216    0.2893 C.2     1  LIG111      0.2508
     18 N          -2.8594   -2.3162    0.3009 N.am    1  LIG111     -0.2809
     19 O           0.4464    1.8892   -0.1421 O.2     1  LIG111     -0.2852
     20 O          -0.7737   -3.3546    0.3859 O.2     1  LIG111     -0.2698
     21 BR          6.7153   -1.3384    0.1152 Br      1  LIG111     -0.0502
     22 BR         -6.6124    1.4790   -0.0548 Br      1  LIG111     -0.0502
     23 H           3.4295    2.4332   -0.2283 H       1  LIG111      0.0626
     24 H           5.7117    1.4274   -0.1510 H       1  LIG111      0.0629
     25 H           4.0214   -2.5591    0.2629 H       1  LIG111      0.0647
     26 H           1.2109   -2.5006    0.2780 H       1  LIG111      0.1523
     27 H          -1.6419    2.0003   -0.1495 H       1  LIG111      0.0625
     28 H          -3.9652    2.8021   -0.2127 H       1  LIG111      0.0629
     29 H          -5.4828   -1.2455    0.2133 H       1  LIG111      0.0647
     30 H          -3.4341   -3.1127    0.3867 H       1  LIG111      0.1552
@<TRIPOS>BOND
     1    23     1    1
     2    28    14    1
     3    24     2    1
     4    27    13    1
     5    19     7    2
     6     1     2   ar
     7     1     5   ar
     8    14    13   ar
     9    14    15   ar
    10     2     3   ar
    11    13    11   ar
    12    22    15    1
    13     7     5    1
    14     7     8    1
    15     5     6   ar
    16    15    16   ar
    17     3    21    1
    18     3     4   ar
    19    11    10    1
    20    11    12   ar
    21     8    10    2
    22     8     9    1
    23     6     4   ar
    24     6     9    1
    25    16    12   ar
    26    16    29    1
    27    10    17    1
    28     4    25    1
    29    12    18    1
    30     9    26    1
    31    17    18   am
    32    17    20    2
    33    18    30    1
