@<TRIPOS>MOLECULE
13
 30 33 0 0 0
SMALL
GASTEIGER

@<TRIPOS>ATOM
      1 C           3.5532    1.3451   -0.1316 C.ar    1  LIG111     -0.0491
      2 C           4.8294    0.7695   -0.0863 C.ar    1  LIG111     -0.0610
      3 C           4.9874   -0.6082    0.0573 C.ar    1  LIG111     -0.0600
      4 C           3.8904   -1.4705    0.1614 C.ar    1  LIG111     -0.0398
      5 C           2.4520    0.5151   -0.0312 C.ar    1  LIG111      0.0447
      6 C           2.6166   -0.9028    0.1165 C.ar    1  LIG111      0.0424
      7 C           1.0028    0.8011   -0.0430 C.2     1  LIG111      0.2095
      8 C           0.3353   -0.5716    0.1054 C.2     1  LIG111      0.0922
      9 N           1.3632   -1.5220    0.1980 N.pl3   1  LIG111     -0.3103
     10 C          -0.9840   -0.8890    0.1463 C.2     1  LIG111      0.0708
     11 C          -2.2048   -0.0869    0.0727 C.ar    1  LIG111      0.0117
     12 C          -3.3260   -0.9998    0.1637 C.ar    1  LIG111      0.0431
     13 C          -2.4529    1.2648   -0.0553 C.ar    1  LIG111     -0.0323
     14 C          -3.7839    1.7243   -0.0950 C.ar    1  LIG111      0.0599
     15 C          -4.8577    0.8336   -0.0073 C.ar    1  LIG111      0.0610
     16 C          -4.6385   -0.5480    0.1241 C.ar    1  LIG111     -0.0201
     17 C          -1.4541   -2.3202    0.2888 C.2     1  LIG111      0.2508
     18 N          -2.8608   -2.3171    0.2894 N.am    1  LIG111     -0.2808
     19 O           0.4472    1.8876   -0.1470 O.2     1  LIG111     -0.2852
     20 O          -0.7765   -3.3548    0.3893 O.2     1  LIG111     -0.2698
     21 CL         -4.0486    3.3936   -0.2532 Cl      1  LIG111     -0.0820
     22 CL         -6.4616    1.3847   -0.0560 Cl      1  LIG111     -0.0820
     23 H           3.4261    2.4326   -0.2447 H       1  LIG111      0.0625
     24 H           5.7163    1.4151   -0.1653 H       1  LIG111      0.0618
     25 H           6.0020   -1.0365    0.0905 H       1  LIG111      0.0618
     26 H           4.0334   -2.5534    0.2743 H       1  LIG111      0.0636
     27 H           1.2099   -2.4985    0.2933 H       1  LIG111      0.1523
     28 H          -1.6330    1.9987   -0.1271 H       1  LIG111      0.0639
     29 H          -5.4882   -1.2420    0.1936 H       1  LIG111      0.0651
     30 H          -3.4352   -3.1140    0.3740 H       1  LIG111      0.1552
@<TRIPOS>BOND
     1    21    14    1
     2    23     1    1
     3    24     2    1
     4    19     7    2
     5     1     2   ar
     6     1     5   ar
     7    28    13    1
     8    14    13   ar
     9    14    15   ar
    10     2     3   ar
    11    22    15    1
    12    13    11   ar
    13     7     5    1
    14     7     8    1
    15     5     6   ar
    16    15    16   ar
    17     3    25    1
    18     3     4   ar
    19    11    10    1
    20    11    12   ar
    21     8    10    2
    22     8     9    1
    23     6     4   ar
    24     6     9    1
    25    16    12   ar
    26    16    29    1
    27    10    17    1
    28     4    26    1
    29    12    18    1
    30     9    27    1
    31    17    18   am
    32    17    20    2
    33    18    30    1
