@<TRIPOS>MOLECULE
14
 32 35 0 0 0
SMALL
GASTEIGER

@<TRIPOS>ATOM
      1 C           1.0053    0.8037   -0.0089 C.2     1  LIG111      0.2095
      2 C           2.4535    0.5169   -0.0153 C.ar    1  LIG111      0.0447
      3 C           3.5537    1.3486   -0.1101 C.ar    1  LIG111     -0.0491
      4 C           4.8304    0.7713   -0.0844 C.ar    1  LIG111     -0.0610
      5 C           4.9890   -0.6083    0.0338 C.ar    1  LIG111     -0.0600
      6 C           3.8915   -1.4723    0.1311 C.ar    1  LIG111     -0.0398
      7 C           2.6192   -0.9033    0.1063 C.ar    1  LIG111      0.0424
      8 C           0.3381   -0.5752    0.1120 C.2     1  LIG111      0.0922
      9 N           1.3633   -1.5243    0.1860 N.pl3   1  LIG111     -0.3103
     10 C          -0.9830   -0.8911    0.1533 C.2     1  LIG111      0.0708
     11 C          -2.2017   -0.0875    0.0747 C.ar    1  LIG111      0.0124
     12 C          -1.4540   -2.3187    0.2976 C.2     1  LIG111      0.2508
     13 N          -2.8649   -2.3109    0.3078 N.am    1  LIG111     -0.2809
     14 C          -3.3251   -0.9973    0.1727 C.ar    1  LIG111      0.0428
     15 C          -2.4474    1.2622   -0.0718 C.ar    1  LIG111     -0.0207
     16 C          -3.7847    1.7135   -0.1091 C.ar    1  LIG111      0.1408
     17 C          -4.8716    0.8330   -0.0264 C.ar    1  LIG111      0.0498
     18 C          -4.6388   -0.5423    0.1190 C.ar    1  LIG111     -0.0237
     19 N          -4.0004    3.1882   -0.2509 N.pl3   1  LIG111      0.0575
     20 O          -3.7009    3.7093   -1.2891 O.2     1  LIG111     -0.1261
     21 O          -4.4313    3.8051    0.6823 O.2     1  LIG111     -0.1261
     22 O          -0.7818   -3.3555    0.3950 O.2     1  LIG111     -0.2698
     23 O           0.4439    1.8895   -0.0748 O.2     1  LIG111     -0.2852
     24 BR         -6.6491    1.4095   -0.1325 Br      1  LIG111     -0.0479
     25 H           3.4262    2.4381   -0.2031 H       1  LIG111      0.0625
     26 H           5.7167    1.4186   -0.1592 H       1  LIG111      0.0618
     27 H           6.0036   -1.0378    0.0518 H       1  LIG111      0.0618
     28 H           4.0353   -2.5572    0.2236 H       1  LIG111      0.0636
     29 H           1.2125   -2.5031    0.2608 H       1  LIG111      0.1523
     30 H          -3.4406   -3.1081    0.3895 H       1  LIG111      0.1552
     31 H          -1.6236    1.9915   -0.1658 H       1  LIG111      0.0647
     32 H          -5.4827   -1.2458    0.1876 H       1  LIG111      0.0648
@<TRIPOS>BOND
     1    20    19    2
     2    19    16    1
     3    19    21    2
     4    25     3    1
     5    31    15    1
     6    26     4    1
     7    24    17    1
     8     3     4   ar
     9     3     2   ar
    10    16    15   ar
    11    16    17   ar
    12     4     5   ar
    13    23     1    2
    14    15    11   ar
    15    17    18   ar
    16     2     1    1
    17     2     7   ar
    18     1     8    1
    19     5    27    1
    20     5     6   ar
    21    11    10    1
    22    11    14   ar
    23     7     6   ar
    24     7     9    1
    25     8    10    2
    26     8     9    1
    27    18    14   ar
    28    18    32    1
    29     6    28    1
    30    10    12    1
    31    14    13    1
    32     9    29    1
    33    12    13   am
    34    12    22    2
    35    13    30    1
