@<TRIPOS>MOLECULE
17
 32 35 0 0 0
SMALL
GASTEIGER

@<TRIPOS>ATOM
      1 C           3.5715    1.2948   -0.3405 C.ar    1  LIG111     -0.0506
      2 C           4.8443    0.7242   -0.1972 C.ar    1  LIG111     -0.0610
      3 C           4.9935   -0.6195    0.1380 C.ar    1  LIG111     -0.0600
      4 C           2.4646    0.4926   -0.1411 C.ar    1  LIG111      0.0265
      5 C           2.6206   -0.8889    0.2138 C.ar    1  LIG111      0.0408
      6 C           3.8877   -1.4520    0.3500 C.ar    1  LIG111     -0.0399
      7 C           1.0152    0.7670   -0.2222 C.2     1  LIG111      0.1331
      8 C           0.3387   -0.5421    0.1337 C.2     1  LIG111      0.0738
      9 C          -0.9854   -0.8599    0.1802 C.2     1  LIG111      0.0692
     10 C          -1.4375   -2.2977    0.2514 C.2     1  LIG111      0.2508
     11 C          -2.2144   -0.0704    0.1165 C.ar    1  LIG111      0.0111
     12 C          -3.3213   -1.0051    0.0531 C.ar    1  LIG111      0.0417
     13 C          -2.4981    1.2814    0.1770 C.ar    1  LIG111     -0.0389
     14 C          -3.8310    1.7158    0.0987 C.ar    1  LIG111      0.0141
     15 C          -4.8795    0.8098   -0.0126 C.ar    1  LIG111     -0.0468
     16 C          -4.6400   -0.5684   -0.0235 C.ar    1  LIG111     -0.0389
     17 N           1.3573   -1.4701    0.4061 N.pl3   1  LIG111     -0.3116
     18 N          -2.8385   -2.3197    0.1061 N.am    1  LIG111     -0.2809
     19 O          -0.7569   -3.3292    0.3757 O.2     1  LIG111     -0.2698
     20 N           0.3660    1.8401   -0.5827 N.2     1  LIG111     -0.0851
     21 O           1.0812    2.8869   -0.9082 O.2     1  LIG111     -0.4087
     22 I          -4.2226    3.6978    0.1559 I       1  LIG111     -0.0438
     23 H           3.4539    2.3559   -0.6090 H       1  LIG111      0.0625
     24 H           5.7352    1.3494   -0.3553 H       1  LIG111      0.0618
     25 H           6.0041   -1.0450    0.2398 H       1  LIG111      0.0618
     26 H           4.0218   -2.5090    0.6152 H       1  LIG111      0.0636
     27 H          -1.7030    2.0283    0.3099 H       1  LIG111      0.0635
     28 H          -5.9206    1.1641   -0.0821 H       1  LIG111      0.0628
     29 H          -5.4762   -1.2778   -0.0849 H       1  LIG111      0.0637
     30 H           1.1929   -2.4477    0.4844 H       1  LIG111      0.1522
     31 H          -3.4030   -3.1260    0.1630 H       1  LIG111      0.1552
     32 H           0.4191    3.5681   -1.1539 H       1  LIG111      0.3278
@<TRIPOS>BOND
     1    32    21    1
     2    21    20    1
     3    23     1    1
     4    20     7    2
     5    24     2    1
     6     1     2   ar
     7     1     4   ar
     8     7     4    1
     9     7     8    1
    10     2     3   ar
    11     4     5   ar
    12    29    16    1
    13    28    15    1
    14    16    15   ar
    15    16    12   ar
    16    15    14   ar
    17    12    18    1
    18    12    11   ar
    19    14    22    1
    20    14    13   ar
    21    18    31    1
    22    18    10   am
    23    11    13   ar
    24    11     9    1
    25     8     9    2
    26     8    17    1
    27     3    25    1
    28     3     6   ar
    29    13    27    1
    30     9    10    1
    31     5     6   ar
    32     5    17    1
    33    10    19    2
    34     6    26    1
    35    17    30    1
