@<TRIPOS>MOLECULE
22
 32 35 0 0 0
SMALL
GASTEIGER

@<TRIPOS>ATOM
      1 C           3.5745    1.2894   -0.3454 C.ar    1  LIG111     -0.0496
      2 C           4.8476    0.7198   -0.2021 C.ar    1  LIG111     -0.0470
      3 C           4.9939   -0.6265    0.1357 C.ar    1  LIG111      0.0197
      4 C           3.8838   -1.4564    0.3534 C.ar    1  LIG111     -0.0259
      5 C           2.4656    0.4923   -0.1441 C.ar    1  LIG111      0.0266
      6 C           2.6187   -0.8882    0.2159 C.ar    1  LIG111      0.0419
      7 C           1.0160    0.7702   -0.2215 C.2     1  LIG111      0.1331
      8 C           0.3378   -0.5355    0.1385 C.2     1  LIG111      0.0738
      9 N           1.3579   -1.4655    0.4202 N.pl3   1  LIG111     -0.3116
     10 C          -0.9842   -0.8544    0.1790 C.2     1  LIG111      0.0692
     11 C          -2.2151   -0.0670    0.1155 C.ar    1  LIG111      0.0102
     12 C          -3.3197   -1.0031    0.0480 C.ar    1  LIG111      0.0416
     13 C          -2.5042    1.2841    0.1802 C.ar    1  LIG111     -0.0520
     14 C          -3.8386    1.7122    0.1058 C.ar    1  LIG111     -0.0611
     15 C          -4.8839    0.8048   -0.0097 C.ar    1  LIG111     -0.0600
     16 C          -4.6401   -0.5737   -0.0280 C.ar    1  LIG111     -0.0399
     17 C          -1.4358   -2.2957    0.2499 C.2     1  LIG111      0.2508
     18 N          -2.8324   -2.3201    0.0919 N.am    1  LIG111     -0.2809
     19 N           0.3730    1.8459   -0.5855 N.2     1  LIG111     -0.0851
     20 O          -0.7510   -3.3241    0.3800 O.2     1  LIG111     -0.2698
     21 O           1.0978    2.8853   -0.9159 O.2     1  LIG111     -0.4087
     22 BR          6.7135   -1.3544    0.3105 Br      1  LIG111     -0.0502
     23 H           3.4634    2.3513   -0.6152 H       1  LIG111      0.0625
     24 H           5.7349    1.3513   -0.3640 H       1  LIG111      0.0629
     25 H           4.0061   -2.5146    0.6258 H       1  LIG111      0.0647
     26 H           1.1914   -2.4445    0.4819 H       1  LIG111      0.1522
     27 H          -1.7208    2.0414    0.3115 H       1  LIG111      0.0624
     28 H          -4.0535    2.7903    0.1447 H       1  LIG111      0.0618
     29 H          -5.9215    1.1649   -0.0764 H       1  LIG111      0.0618
     30 H          -5.4714   -1.2880   -0.0953 H       1  LIG111      0.0636
     31 H          -3.3979   -3.1238    0.1723 H       1  LIG111      0.1552
     32 H           0.4429    3.5652   -1.1821 H       1  LIG111      0.3278
@<TRIPOS>BOND
     1    32    21    1
     2    21    19    1
     3    23     1    1
     4    19     7    2
     5    24     2    1
     6     1     2   ar
     7     1     5   ar
     8     7     5    1
     9     7     8    1
    10     2     3   ar
    11     5     6   ar
    12    30    16    1
    13    29    15    1
    14    16    15   ar
    15    16    12   ar
    16    15    14   ar
    17    12    18    1
    18    12    11   ar
    19    18    31    1
    20    18    17   am
    21    14    28    1
    22    14    13   ar
    23    11    10    1
    24    11    13   ar
    25     3    22    1
    26     3     4   ar
    27     8    10    2
    28     8     9    1
    29    10    17    1
    30    13    27    1
    31     6     4   ar
    32     6     9    1
    33    17    20    2
    34     4    25    1
    35     9    26    1
