@<TRIPOS>MOLECULE
23
 30 33 0 0 0
SMALL
GASTEIGER

@<TRIPOS>ATOM
      1 C           3.5540    1.3441   -0.1322 C.ar    1  LIG111     -0.0491
      2 C           4.8300    0.7678   -0.0919 C.ar    1  LIG111     -0.0610
      3 C           4.9874   -0.6102    0.0509 C.ar    1  LIG111     -0.0600
      4 C           3.8902   -1.4712    0.1587 C.ar    1  LIG111     -0.0398
      5 C           2.4523    0.5155   -0.0279 C.ar    1  LIG111      0.0447
      6 C           2.6163   -0.9027    0.1187 C.ar    1  LIG111      0.0424
      7 C           1.0030    0.8021   -0.0382 C.2     1  LIG111      0.2095
      8 C           0.3347   -0.5695    0.1097 C.2     1  LIG111      0.0922
      9 N           1.3634   -1.5208    0.2059 N.pl3   1  LIG111     -0.3103
     10 C          -0.9839   -0.8875    0.1484 C.2     1  LIG111      0.0708
     11 C          -2.2063   -0.0867    0.0744 C.ar    1  LIG111      0.0112
     12 C          -3.3256   -1.0012    0.1626 C.ar    1  LIG111      0.0417
     13 C          -2.4582    1.2671   -0.0536 C.ar    1  LIG111     -0.0389
     14 C          -3.7864    1.7203   -0.0957 C.ar    1  LIG111      0.0141
     15 C          -4.8532    0.8320   -0.0109 C.ar    1  LIG111     -0.0468
     16 C          -4.6391   -0.5445    0.1198 C.ar    1  LIG111     -0.0389
     17 C          -1.4529   -2.3196    0.2893 C.2     1  LIG111      0.2508
     18 N          -2.8596   -2.3178    0.2865 N.am    1  LIG111     -0.2809
     19 O           0.4490    1.8895   -0.1413 O.2     1  LIG111     -0.2852
     20 O          -0.7752   -3.3546    0.3886 O.2     1  LIG111     -0.2698
     21 I          -4.1493    3.6991   -0.2815 I       1  LIG111     -0.0438
     22 H           3.4282    2.4319   -0.2449 H       1  LIG111      0.0625
     23 H           5.7171    1.4126   -0.1741 H       1  LIG111      0.0618
     24 H           6.0019   -1.0391    0.0802 H       1  LIG111      0.0618
     25 H           4.0323   -2.5543    0.2706 H       1  LIG111      0.0636
     26 H           1.2093   -2.4982    0.2860 H       1  LIG111      0.1523
     27 H          -1.6318    1.9938   -0.1215 H       1  LIG111      0.0635
     28 H          -5.8913    1.2012   -0.0457 H       1  LIG111      0.0628
     29 H          -5.4895   -1.2362    0.1864 H       1  LIG111      0.0637
     30 H          -3.4316   -3.1158    0.3752 H       1  LIG111      0.1552
@<TRIPOS>BOND
     1    21    14    1
     2    22     1    1
     3    23     2    1
     4    19     7    2
     5     1     2   ar
     6     1     5   ar
     7    27    13    1
     8    14    13   ar
     9    14    15   ar
    10     2     3   ar
    11    13    11   ar
    12    28    15    1
    13     7     5    1
    14     7     8    1
    15     5     6   ar
    16    15    16   ar
    17     3    24    1
    18     3     4   ar
    19    11    10    1
    20    11    12   ar
    21     8    10    2
    22     8     9    1
    23     6     4   ar
    24     6     9    1
    25    16    12   ar
    26    16    29    1
    27    10    17    1
    28     4    25    1
    29    12    18    1
    30     9    26    1
    31    18    17   am
    32    18    30    1
    33    17    20    2
