@<TRIPOS>MOLECULE
24
 32 35 0 0 0
SMALL
GASTEIGER

@<TRIPOS>ATOM
      1 C           3.5754    1.2903   -0.3422 C.ar    1  LIG111     -0.0496
      2 C           4.8483    0.7186   -0.2050 C.ar    1  LIG111     -0.0470
      3 C           4.9949   -0.6273    0.1337 C.ar    1  LIG111      0.0197
      4 C           3.8842   -1.4571    0.3511 C.ar    1  LIG111     -0.0259
      5 C           2.4665    0.4946   -0.1353 C.ar    1  LIG111      0.0266
      6 C           2.6197   -0.8875    0.2176 C.ar    1  LIG111      0.0419
      7 C           1.0169    0.7727   -0.2123 C.2     1  LIG111      0.1331
      8 C           0.3389   -0.5360    0.1390 C.2     1  LIG111      0.0738
      9 N           1.3571   -1.4661    0.4147 N.pl3   1  LIG111     -0.3116
     10 C          -0.9843   -0.8554    0.1764 C.2     1  LIG111      0.0692
     11 C          -2.2139   -0.0673    0.1133 C.ar    1  LIG111      0.0102
     12 C          -3.3201   -1.0028    0.0534 C.ar    1  LIG111      0.0427
     13 C          -2.5051    1.2828    0.1701 C.ar    1  LIG111     -0.0510
     14 C          -3.8383    1.7144    0.0973 C.ar    1  LIG111     -0.0471
     15 C          -4.8861    0.8048   -0.0096 C.ar    1  LIG111      0.0197
     16 C          -4.6412   -0.5768   -0.0197 C.ar    1  LIG111     -0.0259
     17 C          -1.4359   -2.2955    0.2477 C.2     1  LIG111      0.2508
     18 N          -2.8348   -2.3192    0.1020 N.am    1  LIG111     -0.2809
     19 N           0.3736    1.8503   -0.5700 N.2     1  LIG111     -0.0851
     20 O          -0.7514   -3.3245    0.3711 O.2     1  LIG111     -0.2698
     21 O           1.0969    2.8918   -0.8945 O.2     1  LIG111     -0.4087
     22 BR         -6.6534    1.4180   -0.1248 Br      1  LIG111     -0.0502
     23 BR          6.7134   -1.3573    0.3046 Br      1  LIG111     -0.0502
     24 H           3.4637    2.3520   -0.6123 H       1  LIG111      0.0625
     25 H           5.7354    1.3499   -0.3702 H       1  LIG111      0.0629
     26 H           4.0063   -2.5165    0.6188 H       1  LIG111      0.0647
     27 H           1.1923   -2.4454    0.4799 H       1  LIG111      0.1522
     28 H          -1.7237    2.0438    0.2944 H       1  LIG111      0.0625
     29 H          -4.0437    2.7959    0.1308 H       1  LIG111      0.0629
     30 H          -5.4681   -1.2990   -0.0787 H       1  LIG111      0.0647
     31 H          -3.3998   -3.1243    0.1713 H       1  LIG111      0.1552
     32 H           0.4412    3.5757   -1.1490 H       1  LIG111      0.3278
@<TRIPOS>BOND
     1    32    21    1
     2    21    19    1
     3    24     1    1
     4    19     7    2
     5    25     2    1
     6     1     2   ar
     7     1     5   ar
     8     7     5    1
     9     7     8    1
    10     2     3   ar
    11     5     6   ar
    12    22    15    1
    13    30    16    1
    14    16    15   ar
    15    16    12   ar
    16    15    14   ar
    17    12    18    1
    18    12    11   ar
    19    14    29    1
    20    14    13   ar
    21    18    31    1
    22    18    17   am
    23    11    13   ar
    24    11    10    1
    25     3    23    1
    26     3     4   ar
    27     8    10    2
    28     8     9    1
    29    13    28    1
    30    10    17    1
    31     6     4   ar
    32     6     9    1
    33    17    20    2
    34     4    26    1
    35     9    27    1
