@<TRIPOS>MOLECULE
25
 34 37 0 0 0
SMALL
GASTEIGER

@<TRIPOS>ATOM
      1 C           1.0176    0.8004    0.1064 C.2     1  LIG111      0.1331
      2 C           2.4665    0.5161    0.0734 C.ar    1  LIG111      0.0265
      3 C           3.5728    1.3429    0.0962 C.ar    1  LIG111     -0.0506
      4 C           4.8456    0.7541    0.0626 C.ar    1  LIG111     -0.0610
      5 C           4.9943   -0.6293    0.0078 C.ar    1  LIG111     -0.0600
      6 C           3.8879   -1.4886   -0.0166 C.ar    1  LIG111     -0.0399
      7 C           2.6226   -0.9087    0.0141 C.ar    1  LIG111      0.0408
      8 C           0.3416   -0.5562    0.0454 C.2     1  LIG111      0.0738
      9 N           1.3551   -1.5172   -0.0305 N.pl3   1  LIG111     -0.3116
     10 C          -0.9856   -0.8755    0.0835 C.2     1  LIG111      0.0693
     11 C          -2.2104   -0.0843    0.0098 C.ar    1  LIG111      0.0124
     12 C          -1.4375   -2.2928    0.3112 C.2     1  LIG111      0.2508
     13 N          -2.8424   -2.2810    0.4658 N.am    1  LIG111     -0.2809
     14 C          -3.3189   -0.9815    0.2799 C.ar    1  LIG111      0.0428
     15 C          -2.4922    1.2272   -0.3081 C.ar    1  LIG111     -0.0207
     16 C          -3.8344    1.6727   -0.2954 C.ar    1  LIG111      0.1408
     17 C          -4.8947    0.8233    0.0471 C.ar    1  LIG111      0.0498
     18 C          -4.6336   -0.5278    0.3186 C.ar    1  LIG111     -0.0237
     19 N          -4.0561    3.1038   -0.6618 N.pl3   1  LIG111      0.0575
     20 O          -4.8107    3.3814   -1.5507 O.2     1  LIG111     -0.1261
     21 O          -3.4188    3.9402   -0.0782 O.2     1  LIG111     -0.1261
     22 O          -0.7633   -3.3310    0.3918 O.2     1  LIG111     -0.2698
     23 N           0.3627    1.9219    0.2318 N.2     1  LIG111     -0.0851
     24 BR         -6.6686    1.4013    0.2025 Br      1  LIG111     -0.0479
     25 O           1.0642    3.0193    0.3249 O.2     1  LIG111     -0.4087
     26 H           3.4554    2.4366    0.1427 H       1  LIG111      0.0625
     27 H           5.7366    1.3989    0.0813 H       1  LIG111      0.0618
     28 H           6.0046   -1.0671   -0.0164 H       1  LIG111      0.0618
     29 H           4.0220   -2.5777   -0.0599 H       1  LIG111      0.0636
     30 H           1.1940   -2.4931    0.0740 H       1  LIG111      0.1522
     31 H          -3.4061   -3.0761    0.6190 H       1  LIG111      0.1552
     32 H          -1.7024    1.9406   -0.5902 H       1  LIG111      0.0647
     33 H          -5.4587   -1.2152    0.5605 H       1  LIG111      0.0648
     34 H           0.3947    3.7326    0.4221 H       1  LIG111      0.3278
@<TRIPOS>BOND
     1    20    19    2
     2    19    16    1
     3    19    21    2
     4    32    15    1
     5    15    16   ar
     6    15    11   ar
     7    16    17   ar
     8    29     6    1
     9     9     7    1
    10     9     8    1
    11     9    30    1
    12     6     5   ar
    13     6     7   ar
    14    28     5    1
    15     5     4   ar
    16    11    10    1
    17    11    14   ar
    18     7     2   ar
    19     8    10    2
    20     8     1    1
    21    17    24    1
    22    17    18   ar
    23     4    27    1
    24     4     3   ar
    25     2     3   ar
    26     2     1    1
    27    10    12    1
    28     3    26    1
    29     1    23    2
    30    23    25    1
    31    14    18   ar
    32    14    13    1
    33    12    22    2
    34    12    13   am
    35    18    33    1
    36    25    34    1
    37    13    31    1
