@<TRIPOS>MOLECULE
29
 41 44 0 0 0
SMALL
GASTEIGER

@<TRIPOS>ATOM
      1 C           3.5956    1.3236   -0.1211 C.ar    1  LIG1111    -0.0506
      2 C           4.8626    0.7273   -0.0734 C.ar    1  LIG1111    -0.0610
      3 C           4.9995   -0.6527    0.0651 C.ar    1  LIG1111    -0.0600
      4 C           2.4800    0.5133   -0.0284 C.ar    1  LIG1111     0.0265
      5 C           2.6235   -0.9078    0.1139 C.ar    1  LIG1111     0.0408
      6 C           3.8878   -1.4961    0.1614 C.ar    1  LIG1111    -0.0399
      7 C           1.0331    0.8105   -0.0441 C.ar    1  LIG1111     0.1340
      8 C           0.3415   -0.5338    0.0965 C.ar    1  LIG1111     0.0738
      9 C          -0.9831   -0.8453    0.1375 C.3     1  LIG1111     0.0692
     10 C          -1.4327   -2.2849    0.2825 C.2     1  LIG1111     0.2508
     11 C          -2.2188   -0.0619    0.0683 C.ar    1  LIG1111     0.0102
     12 C          -3.3240   -0.9939    0.1657 C.ar    1  LIG1111     0.0422
     13 C          -2.5221    1.2825   -0.0601 C.ar    1  LIG1111    -0.0515
     14 C          -3.8602    1.6962   -0.0926 C.ar    1  LIG1111    -0.0539
     15 C          -4.9227    0.7913    0.0010 C.ar    1  LIG1111    -0.0238
     16 C          -4.6499   -0.5829    0.1331 C.ar    1  LIG1111    -0.0327
     17 N           1.3602   -1.5011    0.1859 N.ar    1  LIG1111    -0.3116
     18 N          -2.8342   -2.3053    0.2914 N.am    1  LIG1111    -0.2809
     19 N           0.3840    1.9352   -0.1499 N.4     1  LIG1111    -0.0724
     20 O           1.1290    3.0270   -0.2657 O.3     1  LIG1111    -0.3170
     21 C           0.4832    4.2715   -0.3857 C.2     1  LIG1111     0.3327
     22 C           1.5111    5.3438   -0.5016 C.3     1  LIG1111     0.0356
     23 O          -0.7362    4.3586   -0.3841 O.2     1  LIG1111    -0.2486
     24 O          -0.7453   -3.3164    0.3809 O.2     1  LIG1111    -0.2698
     25 C          -6.2864    1.2975   -0.0411 C.2     1  LIG1111    -0.0616
     26 C          -7.3986    0.5645    0.0378 C.2     1  LIG1111    -0.0981
     27 H           3.4887    2.4132   -0.2305 H       1  LIG1111     0.0625
     28 H           5.7591    1.3597   -0.1466 H       1  LIG1111     0.0618
     29 H           6.0065   -1.0974    0.1002 H       1  LIG1111     0.0618
     30 H           4.0113   -2.5817    0.2699 H       1  LIG1111     0.0636
     31 H          -1.7508    2.0646   -0.1405 H       1  LIG1111     0.0624
     32 H          -4.0715    2.7722   -0.1958 H       1  LIG1111     0.0624
     33 H          -5.4675   -1.3123    0.2085 H       1  LIG1111     0.0642
     34 H           1.1884   -2.4745    0.2850 H       1  LIG1111     0.1522
     35 H          -3.3933   -3.1124    0.3737 H       1  LIG1111     0.1552
     36 H           2.1832    5.1342   -1.3692 H       1  LIG1111     0.0342
     37 H           0.9977    6.3250   -0.6501 H       1  LIG1111     0.0342
     38 H           2.1258    5.3776    0.4312 H       1  LIG1111     0.0342
     39 H          -6.3623    2.3958   -0.1495 H       1  LIG1111     0.0618
     40 H          -8.3944    1.0259   -0.0024 H       1  LIG1111     0.0535
     41 H          -7.4034   -0.5272    0.1462 H       1  LIG1111     0.0535
@<TRIPOS>BOND
     1    27     1    1
     2     1     4   ar
     3     7     4   ar
     4    19     7    1
     5    20    19    1
     6    21    20    1
     7    21    23    2
     8    22    21    1
     9    22    38    1
    10    37    22    1
    11    36    22    1
    12     7     8   ar
    13     8    17   ar
    14    17    34    1
    15     5    17   ar
    16     5     6   ar
    17     6    30    1
    18     3     6   ar
    19     3    29    1
    20     2     3   ar
    21    28     2    1
    22     1     2   ar
    23     4     5   ar
    24     8     9    1
    25    11     9    1
    26    13    11   ar
    27    31    13    1
    28    14    13   ar
    29    32    14    1
    30    14    15   ar
    31    25    15    1
    32    39    25    1
    33    25    26    2
    34    26    41    1
    35    40    26    1
    36    15    16   ar
    37    16    33    1
    38    16    12   ar
    39    12    18    1
    40    18    35    1
    41    10    18   am
    42    10    24    2
    43     9    10    1
    44    11    12   ar
