@<TRIPOS>MOLECULE
30
 37 40 0 0 0
SMALL
GASTEIGER

@<TRIPOS>ATOM
      1 C           3.5944    1.3260   -0.1078 C.ar    1  LIG111     -0.0506
      2 C           4.8616    0.7299   -0.0504 C.ar    1  LIG111     -0.0610
      3 C           4.9976   -0.6511    0.0770 C.ar    1  LIG111     -0.0600
      4 C           2.4789    0.5134   -0.0313 C.ar    1  LIG111      0.0265
      5 C           2.6223   -0.9087    0.0986 C.ar    1  LIG111      0.0408
      6 C           3.8860   -1.4965    0.1521 C.ar    1  LIG111     -0.0399
      7 C           1.0315    0.8100   -0.0545 C.2     1  LIG111      0.1340
      8 C           0.3398   -0.5351    0.0809 C.2     1  LIG111      0.0738
      9 C          -0.9847   -0.8451    0.1388 C.2     1  LIG111      0.0692
     10 C          -1.4317   -2.2834    0.2925 C.2     1  LIG111      0.2508
     11 C          -2.2214   -0.0626    0.0729 C.ar    1  LIG111      0.0103
     12 C          -3.3261   -0.9983    0.1698 C.ar    1  LIG111      0.0443
     13 C          -2.5202    1.2825   -0.0598 C.ar    1  LIG111     -0.0493
     14 C          -3.8542    1.7093   -0.0953 C.ar    1  LIG111     -0.0258
     15 C          -4.9063    0.7899    0.0003 C.ar    1  LIG111      0.1252
     16 C          -4.6530   -0.5932    0.1363 C.ar    1  LIG111     -0.0046
     17 N           1.3582   -1.5045    0.1448 N.pl3   1  LIG111     -0.3116
     18 N          -2.8357   -2.3065    0.2981 N.am    1  LIG111     -0.2808
     19 N           0.3819    1.9359   -0.1542 N.2     1  LIG111     -0.0724
     20 O           1.1245    3.0286   -0.2659 O.3     1  LIG111     -0.3170
     21 C           0.4762    4.2727   -0.3833 C.2     1  LIG111      0.3327
     22 C           1.5015    5.3441   -0.5213 C.3     1  LIG111      0.0356
     23 O          -0.7425    4.3568   -0.3648 O.2     1  LIG111     -0.2486
     24 O          -0.7460   -3.3133    0.4001 O.2     1  LIG111     -0.2698
     25 F          -6.1900    1.2207   -0.0361 F       1  LIG111     -0.2054
     26 H           3.4871    2.4168   -0.2074 H       1  LIG111      0.0625
     27 H           5.7578    1.3639   -0.1080 H       1  LIG111      0.0618
     28 H           6.0046   -1.0956    0.1183 H       1  LIG111      0.0618
     29 H           4.0102   -2.5831    0.2499 H       1  LIG111      0.0636
     30 H          -1.7449    2.0620   -0.1363 H       1  LIG111      0.0625
     31 H          -4.0768    2.7817   -0.1989 H       1  LIG111      0.0646
     32 H          -5.4871   -1.3024    0.2106 H       1  LIG111      0.0665
     33 H           1.1874   -2.4741    0.2748 H       1  LIG111      0.1522
     34 H          -3.3955   -3.1142    0.3731 H       1  LIG111      0.1552
     35 H           0.9868    6.3343   -0.5778 H       1  LIG111      0.0342
     36 H           2.1915    5.3264    0.3574 H       1  LIG111      0.0342
     37 H           2.0977    5.1764   -1.4518 H       1  LIG111      0.0342
@<TRIPOS>BOND
     1    37    22    1
     2    35    22    1
     3    22    21    1
     4    22    36    1
     5    21    23    2
     6    21    20    1
     7    20    19    1
     8    26     1    1
     9    31    14    1
    10    19     7    2
    11    30    13    1
    12    27     2    1
    13     1     2   ar
    14     1     4   ar
    15    14    13   ar
    16    14    15   ar
    17    13    11   ar
    18     7     4    1
    19     7     8    1
    20     2     3   ar
    21    25    15    1
    22     4     5   ar
    23    15    16   ar
    24    11     9    1
    25    11    12   ar
    26     3    28    1
    27     3     6   ar
    28     8     9    2
    29     8    17    1
    30     5    17    1
    31     5     6   ar
    32    16    12   ar
    33    16    32    1
    34     9    10    1
    35    17    33    1
    36     6    29    1
    37    12    18    1
    38    10    18   am
    39    10    24    2
    40    18    34    1
