@<TRIPOS>MOLECULE
34
 37 40 0 0 0
SMALL
GASTEIGER

@<TRIPOS>ATOM
      1 C           3.5999    1.3235   -0.1087 C.ar    1  LIG111     -0.0506
      2 C           4.8653    0.7230   -0.0657 C.ar    1  LIG111     -0.0610
      3 C           4.9989   -0.6580    0.0622 C.ar    1  LIG111     -0.0600
      4 C           2.4824    0.5149   -0.0214 C.ar    1  LIG111      0.0265
      5 C           2.6230   -0.9069    0.1092 C.ar    1  LIG111      0.0408
      6 C           3.8845   -1.4995    0.1520 C.ar    1  LIG111     -0.0399
      7 C           1.0358    0.8148   -0.0370 C.2     1  LIG111      0.1340
      8 C           0.3411   -0.5297    0.0927 C.2     1  LIG111      0.0738
      9 C          -0.9848   -0.8417    0.1334 C.2     1  LIG111      0.0692
     10 C          -1.4300   -2.2804    0.2827 C.2     1  LIG111      0.2508
     11 C          -2.2226   -0.0601    0.0656 C.ar    1  LIG111      0.0116
     12 C          -3.3253   -0.9979    0.1734 C.ar    1  LIG111      0.0431
     13 C          -2.5214    1.2815   -0.0731 C.ar    1  LIG111     -0.0323
     14 C          -3.8677    1.7000   -0.1037 C.ar    1  LIG111      0.0599
     15 C          -4.9152    0.7826    0.0031 C.ar    1  LIG111      0.0610
     16 C          -4.6514   -0.5892    0.1437 C.ar    1  LIG111     -0.0201
     17 N           1.3562   -1.4979    0.1740 N.pl3   1  LIG111     -0.3116
     18 N          -2.8339   -2.3044    0.3024 N.am    1  LIG111     -0.2808
     19 N           0.3918    1.9432   -0.1346 N.2     1  LIG111     -0.0724
     20 O           1.1429    3.0298   -0.2379 O.3     1  LIG111     -0.3170
     21 C           0.5075    4.2833   -0.3533 C.2     1  LIG111      0.3327
     22 C           1.5469    5.3469   -0.4335 C.3     1  LIG111      0.0356
     23 O          -0.7101    4.3745   -0.3767 O.2     1  LIG111     -0.2486
     24 O          -0.7440   -3.3119    0.3784 O.2     1  LIG111     -0.2698
     25 CL         -4.1857    3.3585   -0.2753 Cl      1  LIG111     -0.0820
     26 CL         -6.5362    1.2848   -0.0330 Cl      1  LIG111     -0.0820
     27 H           3.4956    2.4142   -0.2102 H       1  LIG111      0.0625
     28 H           5.7635    1.3536   -0.1350 H       1  LIG111      0.0618
     29 H           6.0047   -1.1059    0.0931 H       1  LIG111      0.0618
     30 H           4.0052   -2.5864    0.2519 H       1  LIG111      0.0636
     31 H          -1.7466    2.0616   -0.1638 H       1  LIG111      0.0639
     32 H          -5.4770   -1.3102    0.2270 H       1  LIG111      0.0651
     33 H           1.1848   -2.4721    0.2687 H       1  LIG111      0.1522
     34 H          -3.3909   -3.1131    0.3901 H       1  LIG111      0.1552
     35 H           1.0429    6.3401   -0.5248 H       1  LIG111      0.0342
     36 H           2.1785    5.3282    0.4883 H       1  LIG111      0.0342
     37 H           2.2006    5.1722   -1.3228 H       1  LIG111      0.0342
@<TRIPOS>BOND
     1    37    22    1
     2    35    22    1
     3    22    21    1
     4    22    36    1
     5    23    21    2
     6    21    20    1
     7    25    14    1
     8    20    19    1
     9    27     1    1
    10    31    13    1
    11    28     2    1
    12    19     7    2
    13     1     2   ar
    14     1     4   ar
    15    14    13   ar
    16    14    15   ar
    17    13    11   ar
    18     2     3   ar
    19     7     4    1
    20     7     8    1
    21    26    15    1
    22     4     5   ar
    23    15    16   ar
    24     3    29    1
    25     3     6   ar
    26    11     9    1
    27    11    12   ar
    28     8     9    2
    29     8    17    1
    30     5     6   ar
    31     5    17    1
    32     9    10    1
    33    16    12   ar
    34    16    32    1
    35     6    30    1
    36    12    18    1
    37    17    33    1
    38    10    18   am
    39    10    24    2
    40    18    34    1
