@<TRIPOS>MOLECULE
03
30 33 1 0 0
SMALL
GASTEIGER


@<TRIPOS>ATOM
      1 C           3.5541    1.3446   -0.1281 C.ar      1 LIG111       -0.0491
      2 C           4.8301    0.7685   -0.0850 C.ar      1 LIG111       -0.0610
      3 C           4.9875   -0.6098    0.0553 C.ar      1 LIG111       -0.0600
      4 C           3.8903   -1.4715    0.1577 C.ar      1 LIG111       -0.0398
      5 C           2.4524    0.5152   -0.0291 C.ar      1 LIG111        0.0447
      6 C           2.6163   -0.9034    0.1149 C.ar      1 LIG111        0.0424
      7 C           1.0031    0.8017   -0.0411 C.2       1 LIG111        0.2095
      8 C           0.3348   -0.5705    0.1046 C.2       1 LIG111        0.0922
      9 N           1.3631   -1.5219    0.1948 N.pl3     1 LIG111       -0.3103
     10 C          -0.9838   -0.8879    0.1473 C.2       1 LIG111        0.0708
     11 C          -2.2053   -0.0855    0.0732 C.ar      1 LIG111        0.0129
     12 C          -3.3260   -0.9977    0.1640 C.ar      1 LIG111        0.0418
     13 C          -2.4459    1.2670   -0.0557 C.ar      1 LIG111       -0.0167
     14 C          -3.7873    1.7194   -0.0961 C.ar      1 LIG111        0.1241
     15 C          -4.8659    0.8281   -0.0088 C.ar      1 LIG111       -0.0247
     16 C          -4.6394   -0.5442    0.1227 C.ar      1 LIG111       -0.0372
     17 C          -1.4541   -2.3197    0.2903 C.2       1 LIG111        0.2508
     18 N          -2.8587   -2.3164    0.2905 N.am      1 LIG111       -0.2809
     19 O           0.4492    1.8892   -0.1438 O.2       1 LIG111       -0.2852
     20 O          -0.7744   -3.3534    0.3919 O.2       1 LIG111       -0.2698
     21 F          -4.0263    3.0488   -0.2226 F         1 LIG111       -0.2055
     22 H           3.4276    2.4326   -0.2384 H         1 LIG111        0.0625
     23 H           5.7174    1.4138   -0.1627 H         1 LIG111        0.0618
     24 H           6.0020   -1.0385    0.0870 H         1 LIG111        0.0618
     25 H           4.0324   -2.5547    0.2678 H         1 LIG111        0.0636
     26 H           1.2085   -2.4981    0.2902 H         1 LIG111        0.1523
     27 H          -1.6351    2.0082   -0.1276 H         1 LIG111        0.0653
     28 H          -5.8953    1.2147   -0.0442 H         1 LIG111        0.0647
     29 H          -5.4878   -1.2391    0.1907 H         1 LIG111        0.0637
     30 H          -3.4329   -3.1130    0.3743 H         1 LIG111        0.1552
@<TRIPOS>BOND
     1   22    1 1
     2    1    5 ar
     3    7    5 1
     4   19    7 2
     5    7    8 2
     6    8   10 2
     7   10   17 1
     8   17   20 2
     9   17   18 am
    10   18   30 1
    11   12   18 1
    12   16   12 ar
    13   16   29 1
    14   15   16 ar
    15   28   15 1
    16   14   15 ar
    17   21   14 1
    18   14   13 ar
    19   27   13 1
    20   13   11 ar
    21   11   12 ar
    22   11   10 1
    23    8    9 2
    24    9   26 1
    25    6    9 1
    26    5    6 ar
    27    6    4 ar
    28    4   25 1
    29    3    4 ar
    30    3   24 1
    31    2    3 ar
    32   23    2 1
    33    1    2 ar
@<TRIPOS>SUBSTRUCTURE
     1 LIG111        1 RESIDUE           4 A     LIG11     0 ROOT
