@<TRIPOS>MOLECULE
11
 30 33 0 0 0
SMALL
GASTEIGER
Energy = 0

@<TRIPOS>ATOM
      1 C           3.5520    1.3458   -0.1251 C.ar    1  LIG11      -0.0491
      2 C           4.8286    0.7713   -0.0817 C.ar    1  LIG11      -0.0610
      3 C           4.9874   -0.6071    0.0567 C.ar    1  LIG11      -0.0600
      4 C           3.8911   -1.4700    0.1567 C.ar    1  LIG11      -0.0398
      5 C           2.4510    0.5152   -0.0289 C.ar    1  LIG11       0.0447
      6 C           2.6163   -0.9036    0.1134 C.ar    1  LIG11       0.0424
      7 C           1.0015    0.7999   -0.0410 C.2     1  LIG11       0.2095
      8 C           0.3348   -0.5728    0.1032 C.2     1  LIG11       0.0922
      9 N           1.3638   -1.5239    0.1910 N.pl3   1  LIG11      -0.3103
     10 C          -0.9836   -0.8904    0.1445 C.2     1  LIG11       0.0708
     11 C          -2.2034   -0.0873    0.0711 C.ar    1  LIG11       0.0103
     12 C          -3.3253   -0.9975    0.1673 C.ar    1  LIG11       0.0427
     13 C          -2.4567    1.2649   -0.0620 C.ar    1  LIG11      -0.0510
     14 C          -3.7830    1.7215   -0.0996 C.ar    1  LIG11      -0.0471
     15 C          -4.8527    0.8358   -0.0061 C.ar    1  LIG11       0.0197
     16 C          -4.6390   -0.5451    0.1290 C.ar    1  LIG11      -0.0259
     17 C          -1.4551   -2.3217    0.2898 C.2     1  LIG11       0.2508
     18 N          -2.8603   -2.3166    0.2950 N.am    1  LIG11      -0.2809
     19 O           0.4460    1.8872   -0.1420 O.2     1  LIG11      -0.2852
     20 O          -0.7765   -3.3559    0.3899 O.2     1  LIG11      -0.2698
     21 BR         -6.6118    1.4807   -0.0606 Br      1  LIG11      -0.0502
     22 H           3.4247    2.4338   -0.2342 H       1  LIG11       0.0625
     23 H           5.7151    1.4178   -0.1576 H       1  LIG11       0.0618
     24 H           6.0026   -1.0345    0.0885 H       1  LIG11       0.0618
     25 H           4.0341   -2.5533    0.2655 H       1  LIG11       0.0636
     26 H           1.2101   -2.5002    0.2850 H       1  LIG11       0.1523
     27 H          -1.6402    1.9998   -0.1393 H       1  LIG11       0.0625
     28 H          -3.9633    2.8030   -0.2061 H       1  LIG11       0.0629
     29 H          -5.4838   -1.2450    0.2016 H       1  LIG11       0.0647
     30 H          -3.4356   -3.1124    0.3820 H       1  LIG11       0.1552
@<TRIPOS>BOND
     1    22     1    1
     2    28    14    1
     3    23     2    1
     4    19     7    2
     5    27    13    1
     6     1     2   ar
     7     1     5   ar
     8    14    13   ar
     9    14    15   ar
    10     2     3   ar
    11    13    11   ar
    12    21    15    1
    13     7     5    1
    14     7     8    1
    15     5     6   ar
    16    15    16   ar
    17     3    24    1
    18     3     4   ar
    19    11    10    1
    20    11    12   ar
    21     8    10    2
    22     8     9    1
    23     6     4   ar
    24     6     9    1
    25    16    12   ar
    26    16    29    1
    27    10    17    1
    28     4    25    1
    29    12    18    1
    30     9    26    1
    31    17    18   am
    32    17    20    2
    33    18    30    1
