@<TRIPOS>MOLECULE
22
 32 35 0 0 0
SMALL
GASTEIGER
Energy = 0

@<TRIPOS>ATOM
      1 C           3.5723    1.2937   -0.3437 C.ar    1  LIG11      -0.0506
      2 C           4.8447    0.7225   -0.1990 C.ar    1  LIG11      -0.0610
      3 C           4.9926   -0.6208    0.1383 C.ar    1  LIG11      -0.0600
      4 C           3.8868   -1.4525    0.3530 C.ar    1  LIG11      -0.0399
      5 C           2.4652    0.4922   -0.1429 C.ar    1  LIG11       0.0265
      6 C           2.6198   -0.8889    0.2144 C.ar    1  LIG11       0.0408
      7 C           1.0155    0.7677   -0.2230 C.2     1  LIG11       0.1331
      8 C           0.3382   -0.5400    0.1351 C.2     1  LIG11       0.0738
      9 N           1.3569   -1.4685    0.4079 N.pl3   1  LIG11      -0.3116
     10 C          -0.9855   -0.8583    0.1786 C.2     1  LIG11       0.0692
     11 C          -2.2141   -0.0691    0.1148 C.ar    1  LIG11       0.0103
     12 C          -3.3210   -1.0044    0.0492 C.ar    1  LIG11       0.0443
     13 C          -2.5007    1.2819    0.1799 C.ar    1  LIG11      -0.0493
     14 C          -3.8269    1.7250    0.1066 C.ar    1  LIG11      -0.0258
     15 C          -4.8810    0.8093   -0.0131 C.ar    1  LIG11       0.1252
     16 C          -4.6414   -0.5829   -0.0270 C.ar    1  LIG11      -0.0046
     17 C          -1.4368   -2.2967    0.2513 C.2     1  LIG11       0.2508
     18 N          -2.8368   -2.3197    0.1010 N.am    1  LIG11      -0.2808
     19 N           0.3692    1.8400   -0.5914 N.2     1  LIG11      -0.0851
     20 O          -0.7570   -3.3278    0.3818 O.2     1  LIG11      -0.2698
     21 O           1.0902    2.8829   -0.9201 O.2     1  LIG11      -0.4087
     22 F          -6.1572    1.2558   -0.0982 F       1  LIG11      -0.2054
     23 H           3.4551    2.3542   -0.6141 H       1  LIG11       0.0625
     24 H           5.7361    1.3473   -0.3563 H       1  LIG11       0.0618
     25 H           6.0031   -1.0460    0.2436 H       1  LIG11       0.0618
     26 H           4.0202   -2.5079    0.6245 H       1  LIG11       0.0636
     27 H           1.1912   -2.4450    0.4952 H       1  LIG11       0.1522
     28 H          -1.7139    2.0364    0.3147 H       1  LIG11       0.0625
     29 H          -4.0474    2.8012    0.1441 H       1  LIG11       0.0646
     30 H          -5.4812   -1.2868   -0.0893 H       1  LIG11       0.0665
     31 H          -3.4024   -3.1251    0.1592 H       1  LIG11       0.1552
     32 H           0.4329    3.5593   -1.1886 H       1  LIG11       0.3278
@<TRIPOS>BOND
     1    32    21    1
     2    21    19    1
     3    23     1    1
     4    19     7    2
     5    24     2    1
     6     1     2   ar
     7     1     5   ar
     8     7     5    1
     9     7     8    1
    10     2     3   ar
    11     5     6   ar
    12    22    15    1
    13    30    16    1
    14    16    15   ar
    15    16    12   ar
    16    15    14   ar
    17    12    18    1
    18    12    11   ar
    19    18    31    1
    20    18    17   am
    21    14    29    1
    22    14    13   ar
    23    11    10    1
    24    11    13   ar
    25     8    10    2
    26     8     9    1
    27     3    25    1
    28     3     4   ar
    29    10    17    1
    30    13    28    1
    31     6     4   ar
    32     6     9    1
    33    17    20    2
    34     4    26    1
    35     9    27    1
