@<TRIPOS>MOLECULE
M1
 53 55 0 0 0
SMALL
GASTEIGER
Energy = 0

@<TRIPOS>ATOM
      1 C           9.5706  -18.5350    5.0512 C.2     1  LIG11      -0.0759
      2 C           9.9430  -19.9620    4.7052 C.3     1  LIG11      -0.0316
      3 C           8.7634  -20.9719    4.7662 C.3     1  LIG11      -0.0421
      4 C           7.4756  -20.2597    4.2769 C.3     1  LIG11       0.0091
      5 C           6.2223  -21.1529    4.0347 C.3     1  LIG11       0.1087
      6 H           3.0872  -18.9165    2.9615 H       1  LIG11       0.0657
      7 C          10.7203  -17.5511    5.0866 C.3     1  LIG11      -0.0438
      8 C           4.9302  -19.0851    4.0331 C.ar    1  LIG11       0.1288
      9 C           6.5040  -22.2788    2.9996 C.3     1  LIG11      -0.0249
     10 C           5.6245  -21.7833    5.3250 C.3     1  LIG11      -0.0249
     11 C           2.2286  -16.3767    3.6827 C.3     1  LIG11      -0.0275
     12 C           2.6450  -15.1759    2.7845 C.3     1  LIG11      -0.0491
     13 C           1.4590  -14.4793    2.0565 C.3     1  LIG11      -0.0530
     14 C           1.8401  -13.1081    1.4357 C.3     1  LIG11      -0.0559
     15 C           2.7846  -13.2913    0.2182 C.3     1  LIG11      -0.0653
     16 C           3.7470  -18.4358    3.6738 C.ar    1  LIG11      -0.0162
     17 C           3.4203  -17.1897    4.2180 C.ar    1  LIG11      -0.0404
     18 C           4.2024  -16.6952    5.2679 C.ar    1  LIG11      -0.0165
     19 C           5.3445  -17.3841    5.6952 C.ar    1  LIG11       0.1243
     20 C           5.7771  -18.5152    4.9925 C.ar    1  LIG11       0.0428
     21 C           7.1530  -19.1317    5.2897 C.3     1  LIG11       0.0158
     22 C           8.3074  -18.1568    5.3005 C.2     1  LIG11      -0.0770
     23 H           6.1459  -17.6193    7.5055 H       1  LIG11       0.2921
     24 H           3.9180  -15.7698    5.7574 H       1  LIG11       0.0657
     25 H           7.0850  -19.5281    6.3146 H       1  LIG11       0.0398
     26 H           8.1126  -17.1102    5.5273 H       1  LIG11       0.0578
     27 H          10.7583  -20.3129    5.3582 H       1  LIG11       0.0310
     28 H          10.3254  -19.9342    3.6716 H       1  LIG11       0.0310
     29 H           8.6246  -21.3259    5.8002 H       1  LIG11       0.0272
     30 H           9.0185  -21.8432    4.1438 H       1  LIG11       0.0272
     31 H           7.7015  -19.7902    3.3032 H       1  LIG11       0.0348
     32 H          10.3989  -16.6284    5.5926 H       1  LIG11       0.0274
     33 H          11.0216  -17.3029    4.0579 H       1  LIG11       0.0274
     34 H          11.6030  -17.9408    5.6160 H       1  LIG11       0.0274
     35 H           7.0200  -21.8908    2.1094 H       1  LIG11       0.0268
     36 H           5.5655  -22.7610    2.6861 H       1  LIG11       0.0268
     37 H           7.1471  -23.0496    3.4518 H       1  LIG11       0.0268
     38 H           5.3005  -20.9985    6.0239 H       1  LIG11       0.0268
     39 H           6.3909  -22.3959    5.8240 H       1  LIG11       0.0268
     40 H           4.7711  -22.4419    5.1123 H       1  LIG11       0.0268
     41 H           1.6282  -15.9903    4.5216 H       1  LIG11       0.0313
     42 H           1.5851  -17.0615    3.1075 H       1  LIG11       0.0313
     43 H           3.3696  -15.5320    2.0327 H       1  LIG11       0.0268
     44 H           3.1660  -14.4230    3.3977 H       1  LIG11       0.0268
     45 H           0.6566  -14.3183    2.7961 H       1  LIG11       0.0265
     46 H           1.0551  -15.1330    1.2677 H       1  LIG11       0.0265
     47 H           2.3518  -12.4818    2.1843 H       1  LIG11       0.0263
     48 H           0.9265  -12.5849    1.1079 H       1  LIG11       0.0263
     49 H           3.0465  -12.3113   -0.2109 H       1  LIG11       0.0230
     50 H           2.2952  -13.8940   -0.5630 H       1  LIG11       0.0230
     51 H           3.7124  -13.7986    0.5258 H       1  LIG11       0.0230
     52 O           5.2438  -20.2995    3.4160 O.3     1  LIG11      -0.4855
     53 O           6.0566  -16.9627    6.8240 O.3     1  LIG11      -0.5063
@<TRIPOS>BOND
     1    50    15    1
     2    49    15    1
     3    15    51    1
     4    15    14    1
     5    48    14    1
     6    46    13    1
     7    14    13    1
     8    14    47    1
     9    43    12    1
    10    13    12    1
    11    13    45    1
    12    35     9    1
    13    36     9    1
    14    12    44    1
    15    12    11    1
    16     6    16    1
    17     9    37    1
    18     9     5    1
    19    42    11    1
    20    31     4    1
    21    52     8    1
    22    52     5    1
    23    28     2    1
    24    16     8   ar
    25    16    17   ar
    26    11    17    1
    27    11    41    1
    28     8    20   ar
    29     5     4    1
    30     5    10    1
    31    33     7    1
    32    30     3    1
    33    17    18   ar
    34     4     3    1
    35     4    21    1
    36     2     3    1
    37     2     1    1
    38     2    27    1
    39     3    29    1
    40    20    21    1
    41    20    19   ar
    42     1     7    1
    43     1    22    2
    44     7    32    1
    45     7    34    1
    46    40    10    1
    47    18    19   ar
    48    18    24    1
    49    21    22    1
    50    21    25    1
    51    22    26    1
    52    10    39    1
    53    10    38    1
    54    19    53    1
    55    53    23    1
