@<TRIPOS>MOLECULE
M10
 68 67 0 0 0
SMALL
GASTEIGER
Energy = 0

@<TRIPOS>ATOM
      1 C          -0.8529  -11.9619    4.1044 C.3     1  LIG11      -0.0448
      2 C          -1.3484  -11.7986    2.6374 C.3     1  LIG11       0.0240
      3 C          -2.2823  -10.6213    2.4583 C.2     1  LIG11       0.2131
      4 N          -3.5423  -10.7443    2.9346 N.am    1  LIG11      -0.3131
      5 C          -4.4906   -9.6437    2.7719 C.3     1  LIG11       0.0348
      6 C          -4.4467   -8.6416    3.9527 C.3     1  LIG11       0.0597
      7 O          -5.5527   -7.7307    3.8386 O.3     1  LIG11      -0.3935
      8 O          -1.8877   -9.6128    1.8955 O.2     1  LIG11      -0.2758
      9 H          -0.5674  -10.9772    4.4989 H       1  LIG11       0.0270
     10 H          -1.7106  -12.3227    4.7015 H       1  LIG11       0.0270
     11 H          -1.8769  -12.7158    2.3248 H       1  LIG11       0.0358
     12 H          -0.5072  -11.6337    1.9473 H       1  LIG11       0.0358
     13 H           0.6266  -12.9585    5.3177 H       1  LIG11       0.0265
     14 H           1.1692  -12.6750    3.6497 H       1  LIG11       0.0265
     15 H          -1.0338  -14.5092    3.4110 H       1  LIG11       0.0268
     16 H          -0.1135  -15.0546    4.8155 H       1  LIG11       0.0268
     17 H           1.1897  -14.5736    2.0837 H       1  LIG11       0.0307
     18 H           0.5974  -16.1389    2.6538 H       1  LIG11       0.0307
     19 H           2.5966  -14.8337    4.5225 H       1  LIG11       0.0569
     20 H           4.0978  -16.5419    3.9281 H       1  LIG11       0.0572
     21 H           1.9620  -17.5222    1.9782 H       1  LIG11       0.0350
     22 H           3.4342  -18.3835    2.4189 H       1  LIG11       0.0350
     23 H           3.6839  -15.6989    0.8953 H       1  LIG11       0.0572
     24 H           4.5837  -16.8655   -0.9301 H       1  LIG11       0.0572
     25 H           3.7857  -19.2883   -1.2070 H       1  LIG11       0.0350
     26 H           3.6259  -19.3995    0.5448 H       1  LIG11       0.0350
     27 H           6.3243  -18.9989   -1.0067 H       1  LIG11       0.0572
     28 H           7.3442  -20.3386    0.6052 H       1  LIG11       0.0572
     29 H           4.7159  -21.4280    1.6351 H       1  LIG11       0.0350
     30 H           5.2787  -20.0270    2.5817 H       1  LIG11       0.0350
     31 H           6.4266  -22.8099    2.5030 H       1  LIG11       0.0572
     32 H           8.2791  -22.0530    3.7657 H       1  LIG11       0.0569
     33 H          -3.8429  -11.5848    3.3884 H       1  LIG11       0.1488
     34 C           0.3082  -12.9917    4.2623 C.3     1  LIG11      -0.0523
     35 C          -0.0454  -14.4626    3.8863 C.3     1  LIG11      -0.0496
     36 C           1.0128  -15.1734    2.9904 C.3     1  LIG11      -0.0348
     37 C           2.3277  -15.4681    3.6743 C.2     1  LIG11      -0.0876
     38 C           3.1926  -16.4325    3.3256 C.2     1  LIG11      -0.0842
     39 C           3.0387  -17.3937    2.1723 C.3     1  LIG11      -0.0165
     40 C           3.6652  -16.7894    0.9378 C.2     1  LIG11      -0.0839
     41 C           4.1793  -17.4579   -0.1048 C.2     1  LIG11      -0.0839
     42 C           4.2337  -18.9602   -0.2578 C.3     1  LIG11      -0.0165
     43 C           5.6846  -19.3801   -0.2083 C.2     1  LIG11      -0.0839
     44 C           6.2722  -20.1632    0.7124 C.2     1  LIG11      -0.0839
     45 C           5.5999  -20.8251    1.8915 C.3     1  LIG11      -0.0165
     46 C           6.5893  -21.7319    2.5839 C.2     1  LIG11      -0.0842
     47 C           7.6404  -21.3020    3.2963 C.2     1  LIG11      -0.0876
     48 C           8.0287  -19.8556    3.5213 C.3     1  LIG11      -0.0348
     49 C           9.1709  -19.7608    4.5651 C.3     1  LIG11      -0.0496
     50 C           9.6934  -18.3040    4.6958 C.3     1  LIG11      -0.0530
     51 C          10.7990  -18.1877    5.7792 C.3     1  LIG11      -0.0559
     52 C          12.1447  -18.7801    5.2821 C.3     1  LIG11      -0.0653
     53 H          -5.5108  -10.0516    2.7020 H       1  LIG11       0.0484
     54 H          -4.2704   -9.0990    1.8398 H       1  LIG11       0.0484
     55 H           7.1824  -19.2362    3.8561 H       1  LIG11       0.0307
     56 H           8.3729  -19.4512    2.5552 H       1  LIG11       0.0307
     57 H          10.0012  -20.4198    4.2634 H       1  LIG11       0.0268
     58 H           8.7960  -20.1043    5.5445 H       1  LIG11       0.0268
     59 H           8.8569  -17.6371    4.9607 H       1  LIG11       0.0265
     60 H          10.1026  -17.9775    3.7251 H       1  LIG11       0.0265
     61 H          10.4861  -18.7254    6.6909 H       1  LIG11       0.0263
     62 H          10.9499  -17.1255    6.0399 H       1  LIG11       0.0263
     63 H          12.4384  -18.3202    4.3227 H       1  LIG11       0.0230
     64 H          12.0552  -19.8711    5.1416 H       1  LIG11       0.0230
     65 H          12.9407  -18.5893    6.0190 H       1  LIG11       0.0230
     66 H          -3.4943   -8.0861    3.9264 H       1  LIG11       0.0573
     67 H          -4.5113   -9.1960    4.9030 H       1  LIG11       0.0573
     68 H          -5.6038   -7.1200    4.5683 H       1  LIG11       0.2095
@<TRIPOS>BOND
     1    25    42    1
     2    27    43    1
     3    24    41    1
     4    42    43    1
     5    42    41    1
     6    42    26    1
     7    43    44    2
     8    41    40    2
     9    28    44    1
    10    44    45    1
    11    23    40    1
    12    40    39    1
    13    29    45    1
    14    54     5    1
    15    45    30    1
    16    45    46    1
    17     8     3    2
    18    12     2    1
    19    21    39    1
    20    17    36    1
    21    39    22    1
    22    39    38    1
    23    11     2    1
    24     3     2    1
    25     3     4   am
    26    31    46    1
    27    56    48    1
    28    46    47    2
    29     2     1    1
    30    18    36    1
    31    53     5    1
    32     5     4    1
    33     5     6    1
    34     4    33    1
    35    36    37    1
    36    36    35    1
    37    47    48    1
    38    47    32    1
    39    38    37    2
    40    38    20    1
    41    15    35    1
    42    48    55    1
    43    48    49    1
    44    14    34    1
    45    37    19    1
    46    60    50    1
    47     7     6    1
    48     7    68    1
    49    35    34    1
    50    35    16    1
    51    66     6    1
    52     6    67    1
    53     1    34    1
    54     1     9    1
    55     1    10    1
    56    34    13    1
    57    57    49    1
    58    63    52    1
    59    49    50    1
    60    49    58    1
    61    50    59    1
    62    50    51    1
    63    64    52    1
    64    52    51    1
    65    52    65    1
    66    51    62    1
    67    51    61    1
