@<TRIPOS>MOLECULE
M11
 74 73 0 0 0
SMALL
GASTEIGER
Energy = 0

@<TRIPOS>ATOM
      1 C          -3.3798   -7.1360    4.7752 C.3     1  LIG11       0.0348
      2 C          -4.1924   -7.6604    5.9857 C.3     1  LIG11       0.0597
      3 O          -5.0532   -6.6144    6.4652 O.3     1  LIG11      -0.3935
      4 C          10.8922  -18.0844    5.6211 C.3     1  LIG11      -0.0559
      5 C          12.2264  -18.7195    5.1516 C.3     1  LIG11      -0.0653
      6 C           6.0658  -22.2396    3.0412 C.3     1  LIG11      -0.0563
      7 C           5.9780  -20.1585    1.6379 C.3     1  LIG11      -0.0563
      8 H          -2.7015   -6.3356    5.1101 H       1  LIG11       0.0484
      9 H          -4.0938   -6.7106    4.0509 H       1  LIG11       0.0484
     10 H          -4.7927   -8.5260    5.6670 H       1  LIG11       0.0573
     11 H          -3.5046   -7.9781    6.7845 H       1  LIG11       0.0573
     12 H          -5.7224   -6.3687    5.8327 H       1  LIG11       0.2095
     13 H          10.9975  -16.9872    5.6285 H       1  LIG11       0.0263
     14 H          10.6789  -18.4181    6.6503 H       1  LIG11       0.0263
     15 H          13.0628  -18.3309    5.7530 H       1  LIG11       0.0230
     16 H          12.1927  -19.8141    5.2658 H       1  LIG11       0.0230
     17 H          12.4147  -18.4789    4.0937 H       1  LIG11       0.0230
     18 H           6.0624  -22.6537    4.0621 H       1  LIG11       0.0238
     19 H           6.9980  -22.5522    2.5447 H       1  LIG11       0.0238
     20 H           5.2268  -22.6968    2.4960 H       1  LIG11       0.0238
     21 H           5.9941  -19.0620    1.6037 H       1  LIG11       0.0238
     22 H           6.8710  -20.5074    1.0982 H       1  LIG11       0.0238
     23 H           5.1020  -20.5353    1.0895 H       1  LIG11       0.0238
     24 H          -2.8951  -10.5291    1.7285 H       1  LIG11       0.0358
     25 H          -1.4364   -9.5826    2.1185 H       1  LIG11       0.0358
     26 H          -1.8403  -10.7521    4.5535 H       1  LIG11       0.0273
     27 H          -2.6307  -11.9869    3.5596 H       1  LIG11       0.0273
     28 H          -0.3729  -11.8636    2.1196 H       1  LIG11       0.0307
     29 H           0.2972  -11.0917    3.5649 H       1  LIG11       0.0307
     30 H          -1.0861  -13.6319    4.3128 H       1  LIG11       0.0569
     31 H           0.9376  -14.8266    4.2334 H       1  LIG11       0.0572
     32 H           2.4371  -12.3513    3.5048 H       1  LIG11       0.0350
     33 C          -3.1661   -8.9936    3.2100 C.2     1  LIG11       0.2131
     34 C          -2.3262  -10.0667    2.5534 C.3     1  LIG11       0.0242
     35 C          -1.8795  -11.1852    3.5383 C.3     1  LIG11      -0.0414
     36 C          -0.4819  -11.7850    3.2139 C.3     1  LIG11      -0.0343
     37 C          -0.2430  -13.1542    3.8096 C.2     1  LIG11      -0.0876
     38 C           0.9099  -13.8374    3.7694 C.2     1  LIG11      -0.0842
     39 C           2.1839  -13.3488    3.1220 C.3     1  LIG11      -0.0165
     40 C           2.0372  -13.4181    1.6180 C.2     1  LIG11      -0.0839
     41 C           2.5792  -14.3418    0.8057 C.2     1  LIG11      -0.0839
     42 C           3.4501  -15.5018    1.2331 C.3     1  LIG11      -0.0165
     43 C           2.5527  -16.6930    1.4740 C.2     1  LIG11      -0.0839
     44 C           2.8009  -17.7515    2.2620 C.2     1  LIG11      -0.0839
     45 C           4.0286  -17.9909    3.1113 C.3     1  LIG11      -0.0165
     46 C           3.8826  -19.2834    3.8840 C.2     1  LIG11      -0.0837
     47 C           4.6745  -20.3717    3.8769 C.2     1  LIG11      -0.0820
     48 C           5.9564  -20.6820    3.1040 C.3     1  LIG11      -0.0169
     49 C           7.1261  -20.0720    3.9421 C.3     1  LIG11      -0.0444
     50 C           8.5639  -20.4251    3.4608 C.3     1  LIG11      -0.0523
     51 C           9.6245  -20.0297    4.5261 C.3     1  LIG11      -0.0530
     52 C           9.7165  -18.4867    4.6900 C.3     1  LIG11      -0.0533
     53 O          -4.3380   -8.8810    2.8763 O.2     1  LIG11      -0.2758
     54 N          -2.5975   -8.1994    4.1485 N.am    1  LIG11      -0.3131
     55 H           3.0130  -14.0191    3.4024 H       1  LIG11       0.0350
     56 H           1.4181  -12.6414    1.1604 H       1  LIG11       0.0572
     57 H           2.3618  -14.2585   -0.2636 H       1  LIG11       0.0572
     58 H           4.1979  -15.6613    0.4438 H       1  LIG11       0.0350
     59 H           4.0096  -15.2791    2.1527 H       1  LIG11       0.0350
     60 H           1.6033  -16.6886    0.9354 H       1  LIG11       0.0572
     61 H           2.0449  -18.5391    2.2898 H       1  LIG11       0.0572
     62 H           4.8676  -18.0874    2.4012 H       1  LIG11       0.0350
     63 H           4.3042  -17.1881    3.8025 H       1  LIG11       0.0350
     64 H           3.0116  -19.3187    4.5455 H       1  LIG11       0.0572
     65 H           4.3468  -21.1617    4.5584 H       1  LIG11       0.0574
     66 H           7.0276  -18.9746    3.9368 H       1  LIG11       0.0273
     67 H           7.0247  -20.4096    4.9874 H       1  LIG11       0.0273
     68 H           8.6486  -21.5080    3.2785 H       1  LIG11       0.0266
     69 H           8.7984  -19.8902    2.5266 H       1  LIG11       0.0266
     70 H           9.3582  -20.4844    5.4954 H       1  LIG11       0.0265
     71 H          10.6104  -20.4193    4.2214 H       1  LIG11       0.0265
     72 H           9.8644  -18.0222    3.7010 H       1  LIG11       0.0265
     73 H           8.7704  -18.1089    5.1114 H       1  LIG11       0.0265
     74 H          -1.6366   -8.3094    4.4139 H       1  LIG11       0.1488
@<TRIPOS>BOND
     1    57    41    1
     2    58    42    1
     3    41    42    1
     4    41    40    2
     5    60    43    1
     6    23     7    1
     7    22     7    1
     8    56    40    1
     9    42    43    1
    10    42    59    1
    11    43    44    2
    12    21     7    1
    13    40    39    1
    14     7    48    1
    15    24    34    1
    16    25    34    1
    17    28    36    1
    18    44    61    1
    19    44    45    1
    20    62    45    1
    21    20     6    1
    22    69    50    1
    23    19     6    1
    24    34    33    1
    25    34    35    1
    26    53    33    2
    27     6    48    1
    28     6    18    1
    29    48    47    1
    30    48    49    1
    31    45    63    1
    32    45    46    1
    33    39    55    1
    34    39    32    1
    35    39    38    1
    36    33    54   am
    37    36    35    1
    38    36    29    1
    39    36    37    1
    40    68    50    1
    41    50    49    1
    42    50    51    1
    43    35    27    1
    44    35    26    1
    45    72    52    1
    46    38    37    2
    47    38    31    1
    48    37    30    1
    49    47    46    2
    50    47    65    1
    51    46    64    1
    52    66    49    1
    53    49    67    1
    54     9     1    1
    55    17     5    1
    56    54    74    1
    57    54     1    1
    58    71    51    1
    59    51    52    1
    60    51    70    1
    61    52    73    1
    62    52     4    1
    63     1     8    1
    64     1     2    1
    65     5    16    1
    66     5     4    1
    67     5    15    1
    68     4    13    1
    69     4    14    1
    70    10     2    1
    71    12     3    1
    72     2     3    1
    73     2    11    1
