@<TRIPOS>MOLECULE
M12
 56 55 0 0 0
SMALL
GASTEIGER
Energy = 0

@<TRIPOS>ATOM
      1 C          -4.8426  -10.7973    1.8583 C.3     1  LIG11       0.4506
      2 F          -5.7770  -10.1042    1.1539 F       1  LIG11      -0.1633
      3 F          -4.9306  -10.4418    3.1706 F       1  LIG11      -0.1633
      4 F          -5.0918  -12.1282    1.7265 F       1  LIG11      -0.1633
      5 H          -2.2274   -9.8888    2.9610 H       1  LIG11       0.0345
      6 H          -1.3491  -10.6610    1.6277 H       1  LIG11       0.0345
      7 H          -2.2304  -12.9029    2.2659 H       1  LIG11       0.0272
      8 H          -3.2840  -12.1708    3.4815 H       1  LIG11       0.0272
      9 H          -1.3494  -13.1112    4.6549 H       1  LIG11       0.0307
     10 H          -1.3283  -11.3481    4.7835 H       1  LIG11       0.0307
     11 H           0.6847  -11.1372    3.5318 H       1  LIG11       0.0569
     12 H           1.9194  -12.9553    2.6930 H       1  LIG11       0.0572
     13 H          -0.4555  -14.5831    2.2420 H       1  LIG11       0.0350
     14 H           0.0721  -14.9499    3.8829 H       1  LIG11       0.0350
     15 H           1.7372  -15.2407    1.2578 H       1  LIG11       0.0572
     16 H           2.9246  -16.9473    2.3486 H       1  LIG11       0.0572
     17 H           0.9467  -16.7959    4.6737 H       1  LIG11       0.0350
     18 H           2.5334  -16.0990    5.0085 H       1  LIG11       0.0350
     19 H           1.8355  -19.0460    4.3696 H       1  LIG11       0.0572
     20 H           4.0080  -19.6446    4.9474 H       1  LIG11       0.0572
     21 H           4.5813  -16.6780    5.6505 H       1  LIG11       0.0350
     22 H           5.4347  -17.3924    4.2672 H       1  LIG11       0.0350
     23 H           5.5631  -18.4295    7.1927 H       1  LIG11       0.0572
     24 H           7.7249  -19.1754    6.6210 H       1  LIG11       0.0569
     25 C          -3.4693  -10.4567    1.3356 C.2     1  LIG11       0.2354
     26 C          -2.2717  -10.7086    2.2254 C.3     1  LIG11       0.0151
     27 C          -2.3074  -12.0697    2.9791 C.3     1  LIG11      -0.0426
     28 C          -1.2081  -12.1841    4.0753 C.3     1  LIG11      -0.0344
     29 C           0.1964  -12.1150    3.5266 C.2     1  LIG11      -0.0876
     30 C           0.9019  -13.1472    3.0367 C.2     1  LIG11      -0.0842
     31 C           0.4166  -14.5710    2.9154 C.3     1  LIG11      -0.0165
     32 C           1.5003  -15.4298    2.3073 C.2     1  LIG11      -0.0839
     33 C           2.1807  -16.4027    2.9330 C.2     1  LIG11      -0.0839
     34 C           2.0049  -16.8271    4.3758 C.3     1  LIG11      -0.0165
     35 C           2.5372  -18.2320    4.5540 C.2     1  LIG11      -0.0839
     36 C           3.7859  -18.5754    4.9020 C.2     1  LIG11      -0.0839
     37 C           4.9180  -17.6272    5.2127 C.3     1  LIG11      -0.0165
     38 C           5.8870  -18.2965    6.1587 C.2     1  LIG11      -0.0842
     39 C           7.1203  -18.7234    5.8327 C.2     1  LIG11      -0.0876
     40 C           7.7620  -18.6285    4.4673 C.3     1  LIG11      -0.0348
     41 C           9.1227  -17.8932    4.5749 C.3     1  LIG11      -0.0496
     42 C          10.2672  -18.8818    4.9329 C.3     1  LIG11      -0.0530
     43 C          11.6319  -18.1488    5.0346 C.3     1  LIG11      -0.0559
     44 C          12.7983  -19.1571    5.1900 C.3     1  LIG11      -0.0653
     45 O          -3.3358   -9.9785    0.2188 O.2     1  LIG11      -0.2880
     46 H           7.1311  -18.1059    3.7336 H       1  LIG11       0.0307
     47 H           7.9227  -19.6539    4.0954 H       1  LIG11       0.0307
     48 H           9.0588  -17.1106    5.3509 H       1  LIG11       0.0268
     49 H           9.3453  -17.4109    3.6095 H       1  LIG11       0.0268
     50 H          10.3330  -19.6648    4.1588 H       1  LIG11       0.0265
     51 H          10.0392  -19.3655    5.8987 H       1  LIG11       0.0265
     52 H          11.6221  -17.4655    5.9012 H       1  LIG11       0.0263
     53 H          11.7984  -17.5485    4.1245 H       1  LIG11       0.0263
     54 H          13.7619  -18.6259    5.2279 H       1  LIG11       0.0230
     55 H          12.8127  -19.8581    4.3411 H       1  LIG11       0.0230
     56 H          12.6812  -19.7348    6.1204 H       1  LIG11       0.0230
@<TRIPOS>BOND
     1    45    25    2
     2     2     1    1
     3    15    32    1
     4    25     1    1
     5    25    26    1
     6     6    26    1
     7     4     1    1
     8     1     3    1
     9    26     5    1
    10    26    27    1
    11    13    31    1
    12     7    27    1
    13    32    31    1
    14    32    33    2
    15    16    33    1
    16    12    30    1
    17    31    30    1
    18    31    14    1
    19    33    34    1
    20    27     8    1
    21    27    28    1
    22    30    29    2
    23    29    11    1
    24    29    28    1
    25    49    41    1
    26    46    40    1
    27    28     9    1
    28    28    10    1
    29    47    40    1
    30    53    43    1
    31    50    42    1
    32    22    37    1
    33    55    44    1
    34    19    35    1
    35    34    35    1
    36    34    17    1
    37    34    18    1
    38    40    41    1
    39    40    39    1
    40    35    36    2
    41    41    42    1
    42    41    48    1
    43    36    20    1
    44    36    37    1
    45    42    43    1
    46    42    51    1
    47    43    44    1
    48    43    52    1
    49    44    54    1
    50    44    56    1
    51    37    21    1
    52    37    38    1
    53    39    38    2
    54    39    24    1
    55    38    23    1
