@<TRIPOS>MOLECULE
M13
 68 67 0 0 0
SMALL
GASTEIGER
Energy = 0

@<TRIPOS>ATOM
      1 C          -3.2839  -11.4672    2.2175 C.3     1  LIG11       0.0348
      2 H          -3.1940  -11.1466    1.1652 H       1  LIG11       0.0484
      3 C          -4.7347  -11.9574    2.4659 C.3     1  LIG11       0.0597
      4 O          -5.6535  -10.9491    2.0078 O.3     1  LIG11      -0.3935
      5 H          -3.1131  -10.5861    2.8635 H       1  LIG11       0.0484
      6 H          -4.8724  -12.1360    3.5475 H       1  LIG11       0.0573
      7 H          -4.9098  -12.9045    1.9235 H       1  LIG11       0.0573
      8 H          -6.5635  -11.1773    2.1825 H       1  LIG11       0.2095
      9 C          -0.9578  -14.7033    3.8192 C.3     1  LIG11      -0.0515
     10 C           0.5829  -13.0306    4.9019 C.3     1  LIG11      -0.0515
     11 H           0.9757  -12.4920    1.9737 H       1  LIG11       0.0278
     12 H           0.2621  -14.0521    1.5852 H       1  LIG11       0.0278
     13 H           1.9481  -15.0168    3.3949 H       1  LIG11       0.0308
     14 H           2.7961  -13.4903    3.1990 H       1  LIG11       0.0308
     15 H           3.1037  -13.9863    0.6975 H       1  LIG11       0.0569
     16 H           3.6643  -16.2211    0.2936 H       1  LIG11       0.0572
     17 H           1.7840  -17.4921    1.9266 H       1  LIG11       0.0350
     18 H           2.8523  -16.8693    3.1759 H       1  LIG11       0.0350
     19 H           3.7604  -18.5945    0.7170 H       1  LIG11       0.0572
     20 H           5.1306  -19.7976    2.1916 H       1  LIG11       0.0572
     21 H           3.7640  -18.2977    4.5386 H       1  LIG11       0.0350
     22 H           5.4842  -18.0666    4.2640 H       1  LIG11       0.0350
     23 H           3.9612  -20.6677    5.0014 H       1  LIG11       0.0572
     24 H           6.0088  -21.7021    5.4693 H       1  LIG11       0.0572
     25 H           8.2233  -20.8819    4.7275 H       1  LIG11       0.0350
     26 H           7.6516  -19.4613    5.6346 H       1  LIG11       0.0350
     27 H           6.7591  -19.6697    2.7067 H       1  LIG11       0.0572
     28 H           8.1745  -17.8172    2.2828 H       1  LIG11       0.0569
     29 H           8.7560  -17.2773    5.1238 H       1  LIG11       0.0307
     30 C          -1.2757  -12.2788    3.3506 C.2     1  LIG11       0.2187
     31 C          -0.2171  -13.3489    3.5979 C.3     1  LIG11       0.0416
     32 C           0.7635  -13.4860    2.3871 C.3     1  LIG11      -0.0361
     33 C           2.1178  -14.1909    2.6862 C.3     1  LIG11      -0.0338
     34 C           2.8186  -14.7166    1.4562 C.2     1  LIG11      -0.0876
     35 C           3.1296  -15.9973    1.2176 C.2     1  LIG11      -0.0842
     36 C           2.8164  -17.1642    2.1220 C.3     1  LIG11      -0.0165
     37 C           3.7452  -18.3019    1.7690 C.2     1  LIG11      -0.0839
     38 C           4.5308  -18.9880    2.6134 C.2     1  LIG11      -0.0839
     39 C           4.6557  -18.7681    4.1032 C.3     1  LIG11      -0.0165
     40 C           4.8695  -20.1166    4.7492 C.2     1  LIG11      -0.0839
     41 C           6.0441  -20.7036    5.0298 C.2     1  LIG11      -0.0839
     42 C           7.4226  -20.1329    4.7916 C.3     1  LIG11      -0.0165
     43 C           7.4387  -19.3502    3.4996 C.2     1  LIG11      -0.0842
     44 C           8.2364  -18.2977    3.2615 C.2     1  LIG11      -0.0876
     45 C           9.2360  -17.7133    4.2353 C.3     1  LIG11      -0.0348
     46 C          10.2331  -18.8143    4.6849 C.3     1  LIG11      -0.0496
     47 C          11.6481  -18.2290    4.9478 C.3     1  LIG11      -0.0530
     48 C          12.6701  -19.3516    5.2785 C.3     1  LIG11      -0.0559
     49 C          14.1111  -18.7854    5.3853 C.3     1  LIG11      -0.0653
     50 O          -1.1832  -11.2141    3.9436 O.2     1  LIG11      -0.2752
     51 N          -2.2969  -12.5118    2.4894 N.am    1  LIG11      -0.3127
     52 H           9.7797  -16.9009    3.7262 H       1  LIG11       0.0307
     53 H          10.2965  -19.5890    3.9011 H       1  LIG11       0.0268
     54 H           9.8601  -19.2892    5.6075 H       1  LIG11       0.0268
     55 H          11.6014  -17.5213    5.7925 H       1  LIG11       0.0265
     56 H          11.9853  -17.6805    4.0519 H       1  LIG11       0.0265
     57 H          12.6435  -20.1210    4.4889 H       1  LIG11       0.0263
     58 H          12.3984  -19.8279    6.2363 H       1  LIG11       0.0263
     59 H          14.7499  -19.4687    5.9688 H       1  LIG11       0.0230
     60 H          14.0994  -17.8013    5.8796 H       1  LIG11       0.0230
     61 H          14.5477  -18.6690    4.3804 H       1  LIG11       0.0230
     62 H          -2.3961  -13.3738    1.9929 H       1  LIG11       0.1488
     63 H          -1.6187  -14.6406    4.6979 H       1  LIG11       0.0240
     64 H          -0.2336  -15.5167    3.9873 H       1  LIG11       0.0240
     65 H          -1.5720  -14.9813    2.9519 H       1  LIG11       0.0240
     66 H          -0.0792  -12.8351    5.7555 H       1  LIG11       0.0240
     67 H           1.2232  -12.1471    4.7560 H       1  LIG11       0.0240
     68 H           1.2312  -13.8769    5.1812 H       1  LIG11       0.0240
@<TRIPOS>BOND
     1    16    35    1
     2    15    34    1
     3    19    37    1
     4     2     1    1
     5    35    34    2
     6    35    36    1
     7    34    33    1
     8    12    32    1
     9    37    36    1
    10    37    38    2
    11     7     3    1
    12    17    36    1
    13    11    32    1
    14    62    51    1
    15     4     8    1
    16     4     3    1
    17    36    18    1
    18    20    38    1
    19     1     3    1
    20     1    51    1
    21     1     5    1
    22    28    44    1
    23    32    33    1
    24    32    31    1
    25     3     6    1
    26    51    30   am
    27    38    39    1
    28    33    14    1
    29    33    13    1
    30    27    43    1
    31    65     9    1
    32    44    43    2
    33    44    45    1
    34    30    31    1
    35    30    50    2
    36    43    42    1
    37    31     9    1
    38    31    10    1
    39    52    45    1
    40     9    64    1
    41     9    63    1
    42    53    46    1
    43    56    47    1
    44    39    22    1
    45    39    21    1
    46    39    40    1
    47    45    46    1
    48    45    29    1
    49    61    49    1
    50    57    48    1
    51    46    47    1
    52    46    54    1
    53    25    42    1
    54    40    23    1
    55    40    41    2
    56    67    10    1
    57    42    41    1
    58    42    26    1
    59    10    68    1
    60    10    66    1
    61    47    48    1
    62    47    55    1
    63    41    24    1
    64    48    49    1
    65    48    58    1
    66    49    60    1
    67    49    59    1
