@<TRIPOS>MOLECULE
M14
 65 64 0 0 0
SMALL
GASTEIGER
Energy = 0

@<TRIPOS>ATOM
      1 C          -2.2163   -9.2808    3.9859 C.2     1  LIG11       0.2152
      2 O          -1.3536   -8.6436    4.5568 O.2     1  LIG11      -0.2757
      3 O          -4.1188   -8.1514    6.0458 O.3     1  LIG11      -0.3945
      4 C          -3.5751   -8.6576    3.7301 C.3     1  LIG11       0.0471
      5 C          -3.9333   -7.5430    4.7515 C.3     1  LIG11       0.0525
      6 H          -4.8784   -8.7261    6.0655 H       1  LIG11       0.2094
      7 H          -4.8610   -7.0364    4.4303 H       1  LIG11       0.0562
      8 H          -3.1056   -6.8124    4.7905 H       1  LIG11       0.0562
      9 H          -2.7620  -11.0563    3.1079 H       1  LIG11       0.1487
     10 H          -4.3402   -9.4461    3.7846 H       1  LIG11       0.0381
     11 H          -3.5744   -8.2293    2.7151 H       1  LIG11       0.0381
     12 H          -1.2225  -13.2572    3.1412 H       1  LIG11       0.0280
     13 H          -1.9204  -12.9296    4.7410 H       1  LIG11       0.0280
     14 H          -0.0505  -14.5493    5.0376 H       1  LIG11       0.0269
     15 H           0.4074  -12.9822    5.7543 H       1  LIG11       0.0269
     16 H           2.3707  -13.5970    4.6158 H       1  LIG11       0.0307
     17 H           1.6131  -12.4147    3.5448 H       1  LIG11       0.0307
     18 H           1.4341  -13.9773    1.8031 H       1  LIG11       0.0569
     19 H           1.6616  -16.3158    1.9848 H       1  LIG11       0.0572
     20 H           0.7218  -16.6131    4.6254 H       1  LIG11       0.0350
     21 H           2.3203  -15.9372    4.9585 H       1  LIG11       0.0350
     22 H           1.5619  -18.6092    3.5449 H       1  LIG11       0.0572
     23 H           3.7658  -19.3410    3.8791 H       1  LIG11       0.0572
     24 H           4.4014  -16.4301    4.8372 H       1  LIG11       0.0350
     25 H           5.4726  -17.4442    3.8871 H       1  LIG11       0.0350
     26 H           5.0524  -17.4633    6.8382 H       1  LIG11       0.0572
     27 H           5.8558  -19.6289    7.1789 H       1  LIG11       0.0572
     28 H           5.8480  -20.0822    4.0750 H       1  LIG11       0.0350
     29 H           5.0347  -21.1590    5.2147 H       1  LIG11       0.0350
     30 H           7.2330  -21.7565    6.2540 H       1  LIG11       0.0572
     31 H           9.1811  -21.4655    4.9429 H       1  LIG11       0.0569
     32 C          -0.7825  -11.2693    3.8788 C.3     1  LIG11       0.0116
     33 C          -1.0238  -12.7923    4.1215 C.3     1  LIG11      -0.0371
     34 C           0.1961  -13.4991    4.8037 C.3     1  LIG11      -0.0482
     35 C           1.5002  -13.4299    3.9605 C.3     1  LIG11      -0.0347
     36 C           1.5263  -14.4014    2.8059 C.2     1  LIG11      -0.0876
     37 C           1.6423  -15.7330    2.9130 C.2     1  LIG11      -0.0842
     38 C           1.7392  -16.4994    4.2137 C.3     1  LIG11      -0.0165
     39 C           2.2826  -17.8828    3.9272 C.2     1  LIG11      -0.0839
     40 C           3.5440  -18.2994    4.1166 C.2     1  LIG11      -0.0839
     41 C           4.6894  -17.4769    4.6572 C.3     1  LIG11      -0.0165
     42 C           5.1358  -18.1072    5.9612 C.2     1  LIG11      -0.0839
     43 C           5.6087  -19.3500    6.1518 C.2     1  LIG11      -0.0839
     44 C           5.8452  -20.4229    5.1163 C.3     1  LIG11      -0.0165
     45 C           7.1709  -21.0944    5.3872 C.2     1  LIG11      -0.0842
     46 C           8.2732  -20.9324    4.6425 C.2     1  LIG11      -0.0876
     47 C           8.3830  -20.0610    3.4093 C.3     1  LIG11      -0.0348
     48 C           9.6478  -19.1712    3.4986 C.3     1  LIG11      -0.0496
     49 C           9.4793  -18.0532    4.5682 C.3     1  LIG11      -0.0530
     50 C          10.8004  -17.2701    4.7847 C.3     1  LIG11      -0.0559
     51 C          11.9308  -18.2030    5.3037 C.3     1  LIG11      -0.0653
     52 H          -0.0574  -11.1220    3.0609 H       1  LIG11       0.0462
     53 N          -2.0219  -10.5595    3.5673 N.am    1  LIG11      -0.3152
     54 H           7.4988  -19.4176    3.2631 H       1  LIG11       0.0307
     55 H           8.4534  -20.7232    2.5288 H       1  LIG11       0.0307
     56 H           9.8423  -18.7074    2.5151 H       1  LIG11       0.0268
     57 H          10.5163  -19.7996    3.7635 H       1  LIG11       0.0268
     58 H           9.1648  -18.5058    5.5250 H       1  LIG11       0.0265
     59 H           8.6897  -17.3542    4.2363 H       1  LIG11       0.0265
     60 H          10.6367  -16.4582    5.5187 H       1  LIG11       0.0263
     61 H          11.1247  -16.8142    3.8300 H       1  LIG11       0.0263
     62 H          12.1300  -19.0076    4.5745 H       1  LIG11       0.0230
     63 H          11.6366  -18.6553    6.2683 H       1  LIG11       0.0230
     64 H          12.8585  -17.6260    5.4545 H       1  LIG11       0.0230
     65 H          -0.3468  -10.8301    4.7971 H       1  LIG11       0.0462
@<TRIPOS>BOND
     1    18    36    1
     2    19    37    1
     3    56    48    1
     4    55    47    1
     5    11     4    1
     6    36    37    2
     7    36    35    1
     8    37    38    1
     9    52    32    1
    10     9    53    1
    11    12    33    1
    12    54    47    1
    13    47    48    1
    14    47    46    1
    15    48    57    1
    16    48    49    1
    17    17    35    1
    18    22    39    1
    19    53    32    1
    20    53     1   am
    21     4    10    1
    22     4     1    1
    23     4     5    1
    24    61    50    1
    25    32    33    1
    26    32    65    1
    27    23    40    1
    28    25    41    1
    29    39    40    2
    30    39    38    1
    31    35    16    1
    32    35    34    1
    33     1     2    2
    34    28    44    1
    35    40    41    1
    36    33    13    1
    37    33    34    1
    38    38    20    1
    39    38    21    1
    40    59    49    1
    41     7     5    1
    42    49    50    1
    43    49    58    1
    44    62    51    1
    45    46    31    1
    46    46    45    2
    47    41    24    1
    48    41    42    1
    49     5     8    1
    50     5     3    1
    51    50    51    1
    52    50    60    1
    53    34    14    1
    54    34    15    1
    55    44    29    1
    56    44    45    1
    57    44    43    1
    58    51    64    1
    59    51    63    1
    60    45    30    1
    61    42    43    2
    62    42    26    1
    63     3     6    1
    64    43    27    1
