@<TRIPOS>MOLECULE
M18
 65 64 0 0 0
SMALL
GASTEIGER
Energy = 0

@<TRIPOS>ATOM
      1 C          -3.2679   -8.9140    4.0983 C.2     1  LIG11       0.3383
      2 H          -3.0320   -6.8161    4.2539 H       1  LIG11       0.0734
      3 O          -4.1351   -9.3913    3.3749 O.2     1  LIG11      -0.2478
      4 C          -3.4802   -7.6254    4.8590 C.3     1  LIG11       0.1746
      5 C          -4.9738   -7.3016    5.0933 C.3     1  LIG11       0.0806
      6 O          -5.1089   -5.9016    5.4265 O.3     1  LIG11      -0.3919
      7 H          -2.7581   -6.8501    6.5659 H       1  LIG11       0.2106
      8 H          -5.3507   -7.9284    5.9232 H       1  LIG11       0.0588
      9 H          -5.5456   -7.5280    4.1745 H       1  LIG11       0.0588
     10 H          -6.0106   -5.6373    5.5813 H       1  LIG11       0.2095
     11 O          -2.8249   -7.6980    6.1426 O.3     1  LIG11      -0.3786
     12 H          -0.8703  -11.8601    4.9866 H       1  LIG11       0.0298
     13 H           0.2281  -10.6400    4.3109 H       1  LIG11       0.0298
     14 H          -0.1771  -12.1280    2.0274 H       1  LIG11       0.0269
     15 H          -0.5438  -13.3867    3.2272 H       1  LIG11       0.0269
     16 H           2.0601  -11.8263    3.5129 H       1  LIG11       0.0307
     17 H           1.9272  -13.1438    2.3421 H       1  LIG11       0.0307
     18 H           2.3077  -13.4560    5.2423 H       1  LIG11       0.0569
     19 H           1.6890  -15.7326    5.1309 H       1  LIG11       0.0572
     20 H           0.3291  -14.9733    2.4591 H       1  LIG11       0.0350
     21 H          -0.1042  -16.3687    3.4521 H       1  LIG11       0.0350
     22 H           2.1943  -16.0037    1.4540 H       1  LIG11       0.0572
     23 H           2.9588  -18.1835    1.8782 H       1  LIG11       0.0572
     24 H           0.7243  -19.0125    3.5606 H       1  LIG11       0.0350
     25 H           1.7797  -18.0773    4.6184 H       1  LIG11       0.0350
     26 H           2.2234  -20.8183    3.4430 H       1  LIG11       0.0572
     27 H           4.4920  -20.8627    3.9922 H       1  LIG11       0.0572
     28 H           4.3080  -17.9039    4.9583 H       1  LIG11       0.0350
     29 H           5.3543  -18.3449    3.5948 H       1  LIG11       0.0350
     30 H           5.5297  -19.6668    6.4062 H       1  LIG11       0.0572
     31 H           7.8650  -19.5310    6.0707 H       1  LIG11       0.0569
     32 C          -1.8051  -10.6357    3.4842 C.3     1  LIG11       0.0926
     33 C          -0.5589  -11.3663    4.0517 C.3     1  LIG11      -0.0183
     34 C           0.0000  -12.4387    3.0706 C.3     1  LIG11      -0.0465
     35 C           1.5114  -12.7531    3.2856 C.3     1  LIG11      -0.0346
     36 C           1.7819  -13.7937    4.3468 C.2     1  LIG11      -0.0876
     37 C           1.4408  -15.0901    4.2805 C.2     1  LIG11      -0.0842
     38 C           0.7444  -15.7592    3.1156 C.3     1  LIG11      -0.0165
     39 C           1.7765  -16.5248    2.3206 C.2     1  LIG11      -0.0839
     40 C           2.2155  -17.7700    2.5648 C.2     1  LIG11      -0.0839
     41 C           1.7628  -18.6697    3.6936 C.3     1  LIG11      -0.0165
     42 C           2.6856  -19.8704    3.7275 C.2     1  LIG11      -0.0839
     43 C           3.9880  -19.8939    4.0545 C.2     1  LIG11      -0.0839
     44 C           4.8507  -18.7349    4.4915 C.3     1  LIG11      -0.0165
     45 C           5.8849  -19.2224    5.4737 C.2     1  LIG11      -0.0842
     46 C           7.2106  -19.1485    5.2852 C.2     1  LIG11      -0.0876
     47 C           7.8952  -18.5643    4.0688 C.3     1  LIG11      -0.0348
     48 C           9.1700  -17.7932    4.4914 C.3     1  LIG11      -0.0496
     49 C          10.3463  -18.7644    4.8107 C.3     1  LIG11      -0.0530
     50 C          11.6364  -17.9954    5.1995 C.3     1  LIG11      -0.0559
     51 C          12.8502  -18.9564    5.3275 C.3     1  LIG11      -0.0653
     52 H          -2.6714  -11.3083    3.4782 H       1  LIG11       0.0697
     53 O          -2.0639   -9.4760    4.2939 O.3     1  LIG11      -0.4628
     54 H           7.2406  -17.8846    3.5007 H       1  LIG11       0.0307
     55 H           8.1702  -19.3952    3.3960 H       1  LIG11       0.0307
     56 H           8.9526  -17.1830    5.3858 H       1  LIG11       0.0268
     57 H           9.4708  -17.1136    3.6762 H       1  LIG11       0.0268
     58 H          10.5501  -19.3903    3.9246 H       1  LIG11       0.0265
     59 H          10.0492  -19.4274    5.6418 H       1  LIG11       0.0265
     60 H          11.4810  -17.4765    6.1627 H       1  LIG11       0.0263
     61 H          11.8578  -17.2355    4.4286 H       1  LIG11       0.0263
     62 H          13.0294  -19.4767    4.3711 H       1  LIG11       0.0230
     63 H          12.6601  -19.7091    6.1105 H       1  LIG11       0.0230
     64 H          13.7540  -18.3868    5.5951 H       1  LIG11       0.0230
     65 H          -1.5958  -10.3265    2.4479 H       1  LIG11       0.0697
@<TRIPOS>BOND
     1    22    39    1
     2    23    40    1
     3    14    34    1
     4    39    40    2
     5    39    38    1
     6    17    35    1
     7    65    32    1
     8    20    38    1
     9    40    41    1
    10    34    15    1
    11    34    35    1
    12    34    33    1
    13    38    21    1
    14    38    37    1
    15    35    16    1
    16    35    36    1
    17     3     1    2
    18    55    47    1
    19    26    42    1
    20    52    32    1
    21    32    33    1
    22    32    53    1
    23    54    47    1
    24    24    41    1
    25    29    44    1
    26    57    48    1
    27    41    42    1
    28    41    25    1
    29    42    43    2
    30    58    49    1
    31    27    43    1
    32    33    13    1
    33    33    12    1
    34    43    44    1
    35    47    48    1
    36    47    46    1
    37     1    53    1
    38     1     4    1
    39     9     5    1
    40     2     4    1
    41    37    36    2
    42    37    19    1
    43    36    18    1
    44    62    51    1
    45    61    50    1
    46    48    49    1
    47    48    56    1
    48    44    28    1
    49    44    45    1
    50    49    50    1
    51    49    59    1
    52     4     5    1
    53     4    11    1
    54     5     6    1
    55     5     8    1
    56    50    51    1
    57    50    60    1
    58    46    45    2
    59    46    31    1
    60    51    64    1
    61    51    63    1
    62     6    10    1
    63    45    30    1
    64    11     7    1
