@<TRIPOS>MOLECULE
M19
 65 64 0 0 0
SMALL
GASTEIGER
Energy = 0

@<TRIPOS>ATOM
      1 C          -3.4709   -7.6233    4.8143 C.3     1  LIG11       0.1488
      2 C          -4.1217   -6.5023    3.9580 C.3     1  LIG11       0.0834
      3 O          -5.5244   -6.7543    3.7752 O.3     1  LIG11      -0.3913
      4 C          -4.2037   -7.7489    6.1757 C.3     1  LIG11       0.0834
      5 O          -3.2611   -7.6008    7.2524 O.3     1  LIG11      -0.3913
      6 H          -2.4153   -7.3805    5.0324 H       1  LIG11       0.0780
      7 H          -3.6282   -6.4112    2.9775 H       1  LIG11       0.0595
      8 H          -4.0224   -5.5340    4.4720 H       1  LIG11       0.0595
      9 H          -5.9598   -6.0482    3.3104 H       1  LIG11       0.2096
     10 H          -4.6826   -8.7407    6.2316 H       1  LIG11       0.0595
     11 H          -4.9911   -6.9806    6.2489 H       1  LIG11       0.0595
     12 H          -2.8285   -6.7520    7.2497 H       1  LIG11       0.2096
     13 H          -2.8867  -10.3664    1.3743 H       1  LIG11       0.0378
     14 H          -3.6360  -11.0434    2.8406 H       1  LIG11       0.0378
     15 H          -1.0479  -10.5661    3.7649 H       1  LIG11       0.0273
     16 H          -0.7159  -10.8583    2.0423 H       1  LIG11       0.0273
     17 H          -1.7297  -13.0729    2.0868 H       1  LIG11       0.0307
     18 H          -2.3709  -12.8158    3.7070 H       1  LIG11       0.0307
     19 H          -0.1764  -13.0277    4.7600 H       1  LIG11       0.0569
     20 H           1.4718  -14.3507    3.7398 H       1  LIG11       0.0572
     21 H           0.3115  -13.3878    1.1027 H       1  LIG11       0.0350
     22 H           0.1071  -15.1121    1.4125 H       1  LIG11       0.0350
     23 H           2.5095  -13.6229    0.4510 H       1  LIG11       0.0572
     24 H           3.9797  -15.4040    0.9350 H       1  LIG11       0.0572
     25 H           1.7993  -17.1325    1.9484 H       1  LIG11       0.0350
     26 H           2.4151  -16.1913    3.3096 H       1  LIG11       0.0350
     27 H           4.4109  -17.7267    1.4683 H       1  LIG11       0.0572
     28 H           5.1979  -18.7649    3.3609 H       1  LIG11       0.0572
     29 H           3.6426  -19.0201    5.3721 H       1  LIG11       0.0350
     30 H           2.7502  -17.5886    4.8123 H       1  LIG11       0.0350
     31 H           4.3023  -16.1042    5.8840 H       1  LIG11       0.0572
     32 H           6.4044  -16.7487    6.7763 H       1  LIG11       0.0569
     33 C          -2.9222   -9.0066    2.9895 C.2     1  LIG11       0.3075
     34 C          -2.8066  -10.4183    2.4729 C.3     1  LIG11       0.0452
     35 C          -1.4386  -11.0498    2.8550 C.3     1  LIG11      -0.0395
     36 C          -1.5133  -12.5890    3.0517 C.3     1  LIG11      -0.0343
     37 C          -0.2851  -13.2037    3.6874 C.2     1  LIG11      -0.0876
     38 C           0.6735  -13.9459    3.1144 C.2     1  LIG11      -0.0842
     39 C           0.7423  -14.2484    1.6357 C.3     1  LIG11      -0.0165
     40 C           2.1555  -14.4064    1.1230 C.2     1  LIG11      -0.0839
     41 C           2.9923  -15.4198    1.4027 C.2     1  LIG11      -0.0839
     42 C           2.6797  -16.5849    2.3167 C.3     1  LIG11      -0.0165
     43 C           3.8593  -17.5252    2.3862 C.2     1  LIG11      -0.0839
     44 C           4.3101  -18.1440    3.4856 C.2     1  LIG11      -0.0839
     45 C           3.7525  -18.0392    4.8863 C.3     1  LIG11      -0.0165
     46 C           4.6408  -17.1284    5.7120 C.2     1  LIG11      -0.0842
     47 C           5.8248  -17.4932    6.2262 C.2     1  LIG11      -0.0876
     48 C           6.4307  -18.8736    6.1150 C.3     1  LIG11      -0.0348
     49 C           7.8858  -18.8777    5.5639 C.3     1  LIG11      -0.0496
     50 C           7.8235  -18.7493    4.0170 C.3     1  LIG11      -0.0530
     51 C           9.2225  -18.7350    3.3494 C.3     1  LIG11      -0.0559
     52 C          10.0520  -17.5236    3.8527 C.3     1  LIG11      -0.0653
     53 O          -2.4338   -8.0636    2.3852 O.2     1  LIG11      -0.2508
     54 O          -3.5890   -8.8997    4.1514 O.3     1  LIG11      -0.4567
     55 H           5.8199  -19.5329    5.4814 H       1  LIG11       0.0307
     56 H           6.4261  -19.3095    7.1282 H       1  LIG11       0.0307
     57 H           8.3861  -19.8191    5.8445 H       1  LIG11       0.0268
     58 H           8.4707  -18.0430    5.9743 H       1  LIG11       0.0268
     59 H           7.3102  -17.8111    3.7475 H       1  LIG11       0.0265
     60 H           7.2399  -19.5911    3.6090 H       1  LIG11       0.0265
     61 H           9.1079  -18.6720    2.2540 H       1  LIG11       0.0263
     62 H           9.7557  -19.6701    3.5890 H       1  LIG11       0.0263
     63 H          11.0654  -17.5441    3.4222 H       1  LIG11       0.0230
     64 H          10.1321  -17.5377    4.9503 H       1  LIG11       0.0230
     65 H           9.5642  -16.5836    3.5506 H       1  LIG11       0.0230
@<TRIPOS>BOND
     1    23    40    1
     2    24    41    1
     3    21    39    1
     4    40    41    2
     5    40    39    1
     6    13    34    1
     7    41    42    1
     8    22    39    1
     9    27    43    1
    10    39    38    1
    11    25    42    1
    12    16    35    1
    13    17    36    1
    14    61    51    1
    15    42    43    1
    16    42    26    1
    17    53    33    2
    18    43    44    2
    19    34    14    1
    20    34    35    1
    21    34    33    1
    22    35    36    1
    23    35    15    1
    24     7     2    1
    25    33    54    1
    26    36    37    1
    27    36    18    1
    28    38    37    2
    29    38    20    1
    30     9     3    1
    31    51    62    1
    32    51    52    1
    33    51    50    1
    34    28    44    1
    35    63    52    1
    36    44    45    1
    37    65    52    1
    38    60    50    1
    39    37    19    1
    40    59    50    1
    41     3     2    1
    42    52    64    1
    43     2     8    1
    44     2     1    1
    45    50    49    1
    46    54     1    1
    47    30    45    1
    48     1     6    1
    49     1     4    1
    50    45    29    1
    51    45    46    1
    52    55    48    1
    53    49    57    1
    54    49    58    1
    55    49    48    1
    56    46    31    1
    57    46    47    2
    58    48    47    1
    59    48    56    1
    60     4    10    1
    61     4    11    1
    62     4     5    1
    63    47    32    1
    64    12     5    1
