@<TRIPOS>MOLECULE
M20
 61 60 0 0 0
SMALL
GASTEIGER
Energy = 0

@<TRIPOS>ATOM
      1 N          -2.0423  -12.5416    2.6446 N.am    1  LIG11      -0.3153
      2 C          -2.8112  -11.4301    2.5824 C.2     1  LIG11       0.2128
      3 C          -4.2111  -11.5721    2.0599 C.3     1  LIG11       0.0211
      4 O          -2.4377  -10.3167    2.9251 O.2     1  LIG11      -0.2758
      5 C          -4.4741  -10.4899    0.9962 C.3     1  LIG11      -0.0570
      6 H          -4.9254  -11.4536    2.8879 H       1  LIG11       0.0356
      7 H          -4.3348  -12.5675    1.6084 H       1  LIG11       0.0356
      8 H          -2.4043  -13.4306    2.3483 H       1  LIG11       0.1487
      9 H          -5.4918  -10.6089    0.5960 H       1  LIG11       0.0234
     10 H          -3.7445  -10.5933    0.1795 H       1  LIG11       0.0234
     11 H          -4.3742   -9.4944    1.4534 H       1  LIG11       0.0234
     12 H          -0.7121  -12.0894    4.2003 H       1  LIG11       0.0462
     13 H          -0.0813  -11.7383    2.5798 H       1  LIG11       0.0462
     14 H          -0.1028  -14.2883    2.1319 H       1  LIG11       0.0283
     15 H          -0.4615  -14.5228    3.8564 H       1  LIG11       0.0283
     16 H           1.9452  -14.7872    3.6240 H       1  LIG11       0.0308
     17 H           1.6504  -13.2451    4.4443 H       1  LIG11       0.0308
     18 H           2.3634  -11.9250    2.5420 H       1  LIG11       0.0569
     19 H           3.5944  -12.9097    0.7840 H       1  LIG11       0.0572
     20 H           2.1310  -15.4115    0.8534 H       1  LIG11       0.0350
     21 H           3.3790  -15.6045    2.0851 H       1  LIG11       0.0350
     22 H           4.1298  -14.4837   -0.7214 H       1  LIG11       0.0572
     23 H           5.5449  -16.3308   -1.0155 H       1  LIG11       0.0572
     24 H           4.2020  -17.5249    1.5448 H       1  LIG11       0.0350
     25 H           5.9473  -17.4525    1.3385 H       1  LIG11       0.0350
     26 H           4.1424  -18.7138   -0.8761 H       1  LIG11       0.0572
     27 H           5.3941  -20.6690   -0.7216 H       1  LIG11       0.0572
     28 H           7.6185  -19.7052    0.8896 H       1  LIG11       0.0350
     29 H           6.8494  -21.3031    0.9893 H       1  LIG11       0.0350
     30 H           5.3162  -19.1246    2.4509 H       1  LIG11       0.0572
     31 H           6.1607  -19.9791    4.4886 H       1  LIG11       0.0569
     32 C          -0.6765  -12.4583    3.1623 C.3     1  LIG11       0.0119
     33 C           0.0241  -13.8461    3.1301 C.3     1  LIG11      -0.0340
     34 C           1.5370  -13.7721    3.4808 C.3     1  LIG11      -0.0333
     35 C           2.3452  -13.0140    2.4529 C.2     1  LIG11      -0.0876
     36 C           3.0397  -13.5761    1.4494 C.2     1  LIG11      -0.0842
     37 C           3.1234  -15.0561    1.1719 C.3     1  LIG11      -0.0165
     38 C           4.0963  -15.2665    0.0367 C.2     1  LIG11      -0.0839
     39 C           4.9063  -16.3241   -0.1302 C.2     1  LIG11      -0.0839
     40 C           5.0004  -17.5197    0.7862 C.3     1  LIG11      -0.0165
     41 C           4.8830  -18.7549   -0.0757 C.2     1  LIG11      -0.0839
     42 C           5.5950  -19.8939    0.0204 C.2     1  LIG11      -0.0839
     43 C           6.6581  -20.2185    1.0397 C.3     1  LIG11      -0.0165
     44 C           6.1343  -19.8491    2.4076 C.2     1  LIG11      -0.0842
     45 C           6.6111  -20.3372    3.5597 C.2     1  LIG11      -0.0876
     46 C           7.7332  -21.3454    3.7039 C.3     1  LIG11      -0.0348
     47 C           8.8054  -20.8287    4.6983 C.3     1  LIG11      -0.0496
     48 C           9.5279  -19.5679    4.1462 C.3     1  LIG11      -0.0530
     49 C          10.7183  -19.1538    5.0533 C.3     1  LIG11      -0.0559
     50 C          11.3796  -17.8453    4.5412 C.3     1  LIG11      -0.0653
     51 H           8.2160  -21.5797    2.7458 H       1  LIG11       0.0307
     52 H           7.2938  -22.2805    4.0855 H       1  LIG11       0.0307
     53 H           9.5481  -21.6205    4.8831 H       1  LIG11       0.0268
     54 H           8.3202  -20.5814    5.6560 H       1  LIG11       0.0268
     55 H           8.8126  -18.7318    4.0899 H       1  LIG11       0.0265
     56 H           9.8994  -19.7807    3.1292 H       1  LIG11       0.0265
     57 H          11.4754  -19.9553    5.0639 H       1  LIG11       0.0263
     58 H          10.3631  -18.9976    6.0859 H       1  LIG11       0.0263
     59 H          11.7016  -17.9629    3.4944 H       1  LIG11       0.0230
     60 H          12.2589  -17.5925    5.1556 H       1  LIG11       0.0230
     61 H          10.6641  -17.0096    4.5969 H       1  LIG11       0.0230
@<TRIPOS>BOND
     1    23    39    1
     2    26    41    1
     3    27    42    1
     4    22    38    1
     5    39    38    2
     6    39    40    1
     7    41    42    2
     8    41    40    1
     9    42    43    1
    10    38    37    1
    11    10     5    1
    12     9     5    1
    13    19    36    1
    14    40    25    1
    15    40    24    1
    16    20    37    1
    17    28    43    1
    18    29    43    1
    19     5    11    1
    20     5     3    1
    21    43    44    1
    22    37    36    1
    23    37    21    1
    24    36    35    2
    25     7     3    1
    26     3     2    1
    27     3     6    1
    28    14    33    1
    29     8     1    1
    30    44    30    1
    31    44    45    2
    32    35    18    1
    33    35    34    1
    34    13    32    1
    35     2     1   am
    36     2     4    2
    37     1    32    1
    38    51    46    1
    39    56    48    1
    40    33    32    1
    41    33    34    1
    42    33    15    1
    43    32    12    1
    44    34    16    1
    45    34    17    1
    46    59    50    1
    47    45    46    1
    48    45    31    1
    49    46    52    1
    50    46    47    1
    51    55    48    1
    52    48    47    1
    53    48    49    1
    54    50    61    1
    55    50    49    1
    56    50    60    1
    57    47    53    1
    58    47    54    1
    59    49    57    1
    60    49    58    1
