@<TRIPOS>MOLECULE
M23
 62 62 0 0 0
SMALL
GASTEIGER
Energy = 0

@<TRIPOS>ATOM
      1 C          -4.0266   -8.4497    4.7477 C.3     1  LIG11       0.0232
      2 C          -5.4286   -7.8042    4.7181 C.3     1  LIG11      -0.0328
      3 C          -4.1753   -6.9495    4.4209 C.3     1  LIG11      -0.0328
      4 H          -3.6231   -8.6937    5.7411 H       1  LIG11       0.0498
      5 H          -5.9230   -7.7152    5.6980 H       1  LIG11       0.0284
      6 H          -6.0679   -8.0745    3.8608 H       1  LIG11       0.0284
      7 H          -3.9665   -6.6689    3.3832 H       1  LIG11       0.0284
      8 H          -3.8492   -6.2556    5.2111 H       1  LIG11       0.0284
      9 H          -1.0546  -10.6445    2.1529 H       1  LIG11       0.0358
     10 H          -2.6729  -10.3931    1.4570 H       1  LIG11       0.0358
     11 H          -3.0988  -12.6271    1.8330 H       1  LIG11       0.0273
     12 H          -3.1080  -12.2448    3.5763 H       1  LIG11       0.0273
     13 H          -0.7375  -13.2936    1.9330 H       1  LIG11       0.0307
     14 H          -1.5704  -14.0903    3.2766 H       1  LIG11       0.0307
     15 H          -0.6156  -11.7516    4.5417 H       1  LIG11       0.0569
     16 H           1.6311  -12.4307    4.7818 H       1  LIG11       0.0572
     17 H           2.8204  -13.8182    3.2876 H       1  LIG11       0.0350
     18 H           1.5157  -13.8326    2.1017 H       1  LIG11       0.0350
     19 H           0.3878  -15.4107    4.1701 H       1  LIG11       0.0572
     20 H           1.7397  -17.3244    4.1369 H       1  LIG11       0.0572
     21 H           4.3074  -16.5671    3.9293 H       1  LIG11       0.0350
     22 H           3.7515  -15.5799    2.5789 H       1  LIG11       0.0350
     23 H           2.7365  -17.9909    1.6990 H       1  LIG11       0.0572
     24 H           4.5858  -19.3834    1.4060 H       1  LIG11       0.0572
     25 H           5.9730  -18.0942    3.8372 H       1  LIG11       0.0350
     26 H           6.6425  -17.7009    2.2336 H       1  LIG11       0.0350
     27 H           6.1779  -20.6247    2.3639 H       1  LIG11       0.0572
     28 H           8.3570  -21.0163    3.1994 H       1  LIG11       0.0569
     29 H           8.4277  -17.9525    3.8644 H       1  LIG11       0.0307
     30 C          -2.4456   -9.8319    3.5346 C.2     1  LIG11       0.2132
     31 C          -2.1352  -10.7282    2.3564 C.3     1  LIG11       0.0242
     32 C          -2.4899  -12.2144    2.6576 C.3     1  LIG11      -0.0414
     33 C          -1.2411  -13.1101    2.8953 C.3     1  LIG11      -0.0343
     34 C          -0.2457  -12.5368    3.8764 C.2     1  LIG11      -0.0876
     35 C           1.0321  -12.9125    4.0047 C.2     1  LIG11      -0.0842
     36 C           1.7348  -13.9576    3.1689 C.3     1  LIG11      -0.0165
     37 C           1.3758  -15.3223    3.7106 C.2     1  LIG11      -0.0839
     38 C           2.1518  -16.4163    3.6932 C.2     1  LIG11      -0.0839
     39 C           3.5520  -16.5067    3.1334 C.3     1  LIG11      -0.0165
     40 C           3.6382  -17.7391    2.2622 C.2     1  LIG11      -0.0839
     41 C           4.6965  -18.5495    2.1050 C.2     1  LIG11      -0.0839
     42 C           6.0385  -18.4319    2.7930 C.3     1  LIG11      -0.0165
     43 C           6.7275  -19.7763    2.7795 C.2     1  LIG11      -0.0842
     44 C           7.9651  -19.9993    3.2505 C.2     1  LIG11      -0.0876
     45 C           8.8769  -18.9567    3.8579 C.3     1  LIG11      -0.0348
     46 C           9.2568  -19.3411    5.3128 C.3     1  LIG11      -0.0496
     47 C          10.7571  -19.7331    5.4127 C.3     1  LIG11      -0.0530
     48 C          11.6844  -18.5000    5.2368 C.3     1  LIG11      -0.0559
     49 C          13.1792  -18.9110    5.2891 C.3     1  LIG11      -0.0653
     50 O          -1.5820   -9.6154    4.3697 O.2     1  LIG11      -0.2758
     51 N          -3.6868   -9.3029    3.6195 N.am    1  LIG11      -0.3125
     52 H           9.7875  -18.9079    3.2399 H       1  LIG11       0.0307
     53 H           8.6339  -20.1901    5.6407 H       1  LIG11       0.0268
     54 H           9.0549  -18.4855    5.9783 H       1  LIG11       0.0268
     55 H          10.9916  -20.4786    4.6339 H       1  LIG11       0.0265
     56 H          10.9475  -20.1904    6.3981 H       1  LIG11       0.0265
     57 H          11.4838  -17.7714    6.0397 H       1  LIG11       0.0263
     58 H          11.4755  -18.0155    4.2691 H       1  LIG11       0.0263
     59 H          13.3993  -19.4410    6.2298 H       1  LIG11       0.0230
     60 H          13.8257  -18.0212    5.2244 H       1  LIG11       0.0230
     61 H          13.4183  -19.5792    4.4459 H       1  LIG11       0.0230
     62 H          -4.3930   -9.4883    2.9315 H       1  LIG11       0.1490
@<TRIPOS>BOND
     1    24    41    1
     2    10    31    1
     3    23    40    1
     4    11    32    1
     5    13    33    1
     6    18    36    1
     7    41    40    2
     8    41    42    1
     9     9    31    1
    10    26    42    1
    11    40    39    1
    12    31    32    1
    13    31    30    1
    14    27    43    1
    15    22    39    1
    16    32    33    1
    17    32    12    1
    18    43    42    1
    19    43    44    2
    20    42    25    1
    21    33    14    1
    22    33    34    1
    23    62    51    1
    24    39    38    1
    25    39    21    1
    26    36    17    1
    27    36    37    1
    28    36    35    1
    29    28    44    1
    30    52    45    1
    31    44    45    1
    32     7     3    1
    33    30    51   am
    34    30    50    2
    35    51     1    1
    36    38    37    2
    37    38    20    1
    38    37    19    1
    39    45    29    1
    40    45    46    1
    41     6     2    1
    42    34    35    2
    43    34    15    1
    44    35    16    1
    45    58    48    1
    46     3     2    1
    47     3     1    1
    48     3     8    1
    49    61    49    1
    50    55    47    1
    51     2     1    1
    52     2     5    1
    53     1     4    1
    54    60    49    1
    55    48    49    1
    56    48    47    1
    57    48    57    1
    58    49    59    1
    59    46    47    1
    60    46    53    1
    61    46    54    1
    62    47    56    1
