@<TRIPOS>MOLECULE
M24
 62 61 0 0 0
SMALL
GASTEIGER
Energy = 0

@<TRIPOS>ATOM
      1 N          -2.3245   -9.4430    4.1733 N.am    1  LIG11      -0.3152
      2 C          -3.6208   -9.0563    4.1892 C.2     1  LIG11       0.2152
      3 C          -3.9825   -7.8428    4.9953 C.3     1  LIG11       0.0471
      4 O          -4.5169   -9.6328    3.5881 O.2     1  LIG11      -0.2757
      5 C          -3.4157   -6.5848    4.3115 C.3     1  LIG11       0.0525
      6 O          -3.5992   -5.4537    5.1671 O.3     1  LIG11      -0.3945
      7 H          -3.5576   -7.9339    6.0058 H       1  LIG11       0.0381
      8 H          -1.6315   -8.9288    4.6877 H       1  LIG11       0.1487
      9 H          -5.0773   -7.7611    5.0639 H       1  LIG11       0.0381
     10 H          -3.9430   -6.4148    3.3612 H       1  LIG11       0.0562
     11 H          -2.3427   -6.7258    4.1155 H       1  LIG11       0.0562
     12 H          -3.1163   -5.5859    5.9745 H       1  LIG11       0.2094
     13 H          -1.6390  -10.2766    2.3762 H       1  LIG11       0.0462
     14 H          -2.7545  -11.3176    3.2812 H       1  LIG11       0.0462
     15 H          -0.9580  -11.5668    5.0920 H       1  LIG11       0.0283
     16 H           0.1669  -10.6682    4.0506 H       1  LIG11       0.0283
     17 H          -0.2282  -12.4579    2.2200 H       1  LIG11       0.0308
     18 H          -1.1227  -13.3856    3.4355 H       1  LIG11       0.0308
     19 H           1.2397  -13.0081    4.8630 H       1  LIG11       0.0569
     20 H           2.6378  -14.4899    3.6691 H       1  LIG11       0.0572
     21 H           0.7819  -13.8942    1.2686 H       1  LIG11       0.0350
     22 H           1.0974  -15.5692    1.7235 H       1  LIG11       0.0350
     23 H           3.0897  -13.4326    0.6415 H       1  LIG11       0.0572
     24 H           4.5738  -15.1745    0.1279 H       1  LIG11       0.0572
     25 H           2.4556  -17.2241    0.8936 H       1  LIG11       0.0350
     26 H           3.6862  -16.9957    2.1297 H       1  LIG11       0.0350
     27 H           4.2040  -17.6820   -0.8899 H       1  LIG11       0.0572
     28 H           6.0842  -18.8806   -0.2251 H       1  LIG11       0.0572
     29 H           5.2522  -18.5165    2.7542 H       1  LIG11       0.0350
     30 H           6.7605  -17.7903    2.1608 H       1  LIG11       0.0350
     31 H           6.0810  -20.8024    1.7408 H       1  LIG11       0.0572
     32 H           8.2728  -21.1854    2.5439 H       1  LIG11       0.0569
     33 C          -1.9186  -10.6094    3.3890 C.3     1  LIG11       0.0119
     34 C          -0.7119  -11.3380    4.0455 C.3     1  LIG11      -0.0340
     35 C          -0.3141  -12.6455    3.3040 C.3     1  LIG11      -0.0333
     36 C           0.9568  -13.2645    3.8390 C.2     1  LIG11      -0.0876
     37 C           1.7543  -14.1025    3.1556 C.2     1  LIG11      -0.0842
     38 C           1.5234  -14.5600    1.7373 C.3     1  LIG11      -0.0165
     39 C           2.8263  -14.4333    0.9851 C.2     1  LIG11      -0.0839
     40 C           3.6753  -15.4311    0.6922 C.2     1  LIG11      -0.0839
     41 C           3.4909  -16.8848    1.0546 C.3     1  LIG11      -0.0165
     42 C           4.4249  -17.6866    0.1787 C.2     1  LIG11      -0.0839
     43 C           5.5049  -18.3938    0.5616 C.2     1  LIG11      -0.0839
     44 C           6.0173  -18.5813    1.9676 C.3     1  LIG11      -0.0165
     45 C           6.6730  -19.9393    2.0580 C.2     1  LIG11      -0.0842
     46 C           7.9154  -20.1533    2.5091 C.2     1  LIG11      -0.0876
     47 C           8.8845  -19.0917    2.9887 C.3     1  LIG11      -0.0348
     48 C           8.9182  -19.0450    4.5387 C.3     1  LIG11      -0.0496
     49 C           9.7671  -17.8474    5.0499 C.3     1  LIG11      -0.0530
     50 C          11.2149  -17.8990    4.4910 C.3     1  LIG11      -0.0559
     51 C          12.0078  -19.0834    5.1076 C.3     1  LIG11      -0.0653
     52 H           8.6398  -18.0923    2.6051 H       1  LIG11       0.0307
     53 H           9.8829  -19.3538    2.6040 H       1  LIG11       0.0307
     54 H           9.3449  -19.9834    4.9260 H       1  LIG11       0.0268
     55 H           7.8887  -18.9518    4.9195 H       1  LIG11       0.0268
     56 H           9.8071  -17.8711    6.1508 H       1  LIG11       0.0265
     57 H           9.2872  -16.9045    4.7367 H       1  LIG11       0.0265
     58 H          11.7392  -16.9581    4.7266 H       1  LIG11       0.0263
     59 H          11.1871  -18.0162    3.3945 H       1  LIG11       0.0263
     60 H          11.4963  -20.0365    4.9000 H       1  LIG11       0.0230
     61 H          12.0969  -18.9601    6.1990 H       1  LIG11       0.0230
     62 H          13.0214  -19.1279    4.6785 H       1  LIG11       0.0230
@<TRIPOS>BOND
     1    27    42    1
     2    28    43    1
     3    24    40    1
     4    42    43    2
     5    42    41    1
     6    43    44    1
     7    23    39    1
     8    40    39    2
     9    40    41    1
    10    25    41    1
    11    39    38    1
    12    41    26    1
    13    21    38    1
    14    22    38    1
    15    38    37    1
    16    31    45    1
    17    44    45    1
    18    44    30    1
    19    44    29    1
    20    45    46    2
    21    17    35    1
    22    13    33    1
    23    46    32    1
    24    46    47    1
    25    53    47    1
    26    52    47    1
    27    47    48    1
    28    37    20    1
    29    37    36    2
    30    14    33    1
    31    35    18    1
    32    35    36    1
    33    35    34    1
    34    10     5    1
    35    33    34    1
    36    33     1    1
    37    59    50    1
    38     4     2    2
    39    36    19    1
    40    34    16    1
    41    34    15    1
    42    11     5    1
    43     1     2   am
    44     1     8    1
    45     2     3    1
    46     5     3    1
    47     5     6    1
    48    50    58    1
    49    50    49    1
    50    50    51    1
    51    48    55    1
    52    48    54    1
    53    48    49    1
    54    62    51    1
    55    57    49    1
    56    60    51    1
    57     3     9    1
    58     3     7    1
    59    49    56    1
    60    51    61    1
    61     6    12    1
