@<TRIPOS>MOLECULE
M25
 61 60 0 0 0
SMALL
GASTEIGER
Energy = 0

@<TRIPOS>ATOM
      1 C          -3.1610   -6.1144    3.7392 C.3     1  LIG11       0.0250
      2 H          -3.0330   -5.4552    2.8659 H       1  LIG11       0.0473
      3 C          -4.5129   -5.7898    4.4231 C.3     1  LIG11       0.0381
      4 CL         -4.7137   -6.7506    5.8929 Cl      1  LIG11      -0.1238
      5 H          -2.3565   -5.9000    4.4611 H       1  LIG11       0.0473
      6 H          -5.3460   -6.0213    3.7402 H       1  LIG11       0.0445
      7 H          -4.5589   -4.7246    4.7008 H       1  LIG11       0.0445
      8 H          -1.9048   -9.7599    2.3737 H       1  LIG11       0.0358
      9 H          -3.2126  -10.2910    3.4581 H       1  LIG11       0.0358
     10 H          -1.6414  -10.9385    5.2053 H       1  LIG11       0.0273
     11 H          -0.3034  -10.0818    4.4228 H       1  LIG11       0.0273
     12 H          -0.6898  -11.7598    2.3980 H       1  LIG11       0.0307
     13 H          -1.5687  -12.7288    3.5877 H       1  LIG11       0.0307
     14 H           0.7999  -12.3193    5.0103 H       1  LIG11       0.0569
     15 H           2.2130  -13.7671    3.8104 H       1  LIG11       0.0572
     16 H           0.2453  -13.3157    1.4632 H       1  LIG11       0.0350
     17 H           0.8610  -14.9221    1.8404 H       1  LIG11       0.0350
     18 H           2.3899  -12.4493    0.7439 H       1  LIG11       0.0572
     19 H           4.1338  -13.8772    0.1071 H       1  LIG11       0.0572
     20 H           2.4734  -16.2899    1.0206 H       1  LIG11       0.0350
     21 H           3.8296  -15.8610    2.0596 H       1  LIG11       0.0350
     22 H           4.4437  -15.8739   -0.9437 H       1  LIG11       0.0572
     23 H           5.6999  -17.8355   -0.6987 H       1  LIG11       0.0572
     24 H           4.1072  -18.9315    1.5487 H       1  LIG11       0.0350
     25 H           5.3459  -17.8430    2.2217 H       1  LIG11       0.0350
     26 H           5.8512  -20.3450    0.4421 H       1  LIG11       0.0572
     27 H           7.9146  -20.4738    1.5916 H       1  LIG11       0.0569
     28 H           7.2102  -18.6806    3.7777 H       1  LIG11       0.0307
     29 C          -2.3024   -8.3901    3.9448 C.2     1  LIG11       0.2131
     30 C          -2.2207   -9.8097    3.4287 C.3     1  LIG11       0.0242
     31 C          -1.2099  -10.6798    4.2274 C.3     1  LIG11      -0.0414
     32 C          -0.7761  -11.9700    3.4756 C.3     1  LIG11      -0.0343
     33 C           0.5115  -12.5727    3.9876 C.2     1  LIG11      -0.0876
     34 C           1.3219  -13.3916    3.3019 C.2     1  LIG11      -0.0842
     35 C           1.1093  -13.8564    1.8806 C.3     1  LIG11      -0.0165
     36 C           2.3305  -13.4898    1.0709 C.2     1  LIG11      -0.0839
     37 C           3.3298  -14.3081    0.7084 C.2     1  LIG11      -0.0839
     38 C           3.4467  -15.7800    1.0332 C.3     1  LIG11      -0.0165
     39 C           4.3552  -16.4100    0.0035 C.2     1  LIG11      -0.0839
     40 C           5.0635  -17.5423    0.1385 C.2     1  LIG11      -0.0839
     41 C           5.0751  -18.4523    1.3447 C.3     1  LIG11      -0.0165
     42 C           6.0914  -19.5539    1.1555 C.2     1  LIG11      -0.0842
     43 C           7.2618  -19.6261    1.8070 C.2     1  LIG11      -0.0876
     44 C           7.7653  -18.6317    2.8297 C.3     1  LIG11      -0.0348
     45 C           9.2701  -18.8805    3.1140 C.3     1  LIG11      -0.0496
     46 C           9.8649  -17.7874    4.0434 C.3     1  LIG11      -0.0530
     47 C          11.3420  -18.0974    4.4056 C.3     1  LIG11      -0.0559
     48 C          11.4699  -19.4422    5.1667 C.3     1  LIG11      -0.0653
     49 O          -1.6535   -8.0833    4.9322 O.2     1  LIG11      -0.2758
     50 N          -3.0960   -7.5050    3.2959 N.am    1  LIG11      -0.3142
     51 H           7.6279  -17.6186    2.4191 H       1  LIG11       0.0307
     52 H           9.8231  -18.8897    2.1603 H       1  LIG11       0.0268
     53 H           9.3884  -19.8672    3.5897 H       1  LIG11       0.0268
     54 H           9.2680  -17.7303    4.9686 H       1  LIG11       0.0265
     55 H           9.8100  -16.8102    3.5361 H       1  LIG11       0.0265
     56 H          11.7445  -17.2885    5.0373 H       1  LIG11       0.0263
     57 H          11.9450  -18.1477    3.4839 H       1  LIG11       0.0263
     58 H          11.1063  -20.2735    4.5428 H       1  LIG11       0.0230
     59 H          10.8814  -19.4149    6.0970 H       1  LIG11       0.0230
     60 H          12.5233  -19.6329    5.4246 H       1  LIG11       0.0230
     61 H          -3.6237   -7.7737    2.4880 H       1  LIG11       0.1487
@<TRIPOS>BOND
     1    22    39    1
     2    23    40    1
     3    39    40    2
     4    39    38    1
     5    19    37    1
     6    40    41    1
     7    26    42    1
     8    37    38    1
     9    37    36    2
    10    18    36    1
    11    20    38    1
    12    38    21    1
    13    36    35    1
    14    42    41    1
    15    42    43    2
    16    41    24    1
    17    41    25    1
    18    16    35    1
    19    27    43    1
    20    43    44    1
    21    17    35    1
    22    35    34    1
    23    52    45    1
    24     8    30    1
    25    12    32    1
    26    51    44    1
    27    61    50    1
    28    44    45    1
    29    44    28    1
    30     2     1    1
    31    45    53    1
    32    45    46    1
    33    50     1    1
    34    50    29   am
    35    34    15    1
    36    34    33    2
    37    30     9    1
    38    30    29    1
    39    30    31    1
    40    32    13    1
    41    32    33    1
    42    32    31    1
    43    57    47    1
    44    55    46    1
    45     1     3    1
    46     1     5    1
    47     6     3    1
    48    29    49    2
    49    33    14    1
    50    46    47    1
    51    46    54    1
    52    31    11    1
    53    31    10    1
    54    47    56    1
    55    47    48    1
    56     3     7    1
    57     3     4    1
    58    58    48    1
    59    48    60    1
    60    48    59    1
