@<TRIPOS>MOLECULE
M26
 65 64 0 0 0
SMALL
GASTEIGER
Energy = 0

@<TRIPOS>ATOM
      1 C1         -2.7907   -9.8208    3.2990 C.3     1  <1>         0.0434
      2 C2         -2.5083   -9.4261    1.8234 C.3     1  <1>        -0.0445
      3 C3         -3.0951   -8.5468    4.1357 C.3     1  <1>         0.0623
      4 O1         -4.2009   -7.8319    3.5566 O.3     1  <1>        -0.3932
      5 H1         -3.6869  -10.4641    3.3365 H       1  <1>         0.0518
      6 H2         -2.1683  -10.3080    1.2600 H       1  <1>         0.0248
      7 H3         -1.7285   -8.6508    1.7711 H       1  <1>         0.0248
      8 H4         -3.4093   -9.0287    1.3346 H       1  <1>         0.0248
      9 H5         -2.2005   -7.9014    4.1585 H       1  <1>         0.0575
     10 H6         -3.3454   -8.8405    5.1695 H       1  <1>         0.0575
     11 H7         -4.4419   -7.0590    4.0583 H       1  <1>         0.2095
     12 H8         -0.5606  -13.3914    4.6598 H       1  <1>         0.0358
     13 H9          0.3091  -11.8553    4.8386 H       1  <1>         0.0358
     14 H10         1.6822  -12.2824    3.0093 H       1  <1>         0.0273
     15 H11         0.3435  -12.9256    2.0333 H       1  <1>         0.0273
     16 H12         1.7054  -14.8414    2.2914 H       1  <1>         0.0307
     17 H13         0.4478  -15.0620    3.5100 H       1  <1>         0.0307
     18 H14         2.2957  -13.8163    5.1333 H       1  <1>         0.0569
     19 H15         3.9544  -15.4754    5.2892 H       1  <1>         0.0572
     20 H16         4.3347  -17.2610    3.8224 H       1  <1>         0.0350
     21 H17         3.8631  -16.2423    2.4647 H       1  <1>         0.0350
     22 H18         1.7070  -17.3893    2.4218 H       1  <1>         0.0572
     23 H19         0.8394  -18.7804    4.0975 H       1  <1>         0.0572
     24 H20         1.7136  -18.1328    6.4864 H       1  <1>         0.0350
     25 H21         3.2950  -17.8842    5.7468 H       1  <1>         0.0350
     26 H22         1.7894  -20.6246    5.5935 H       1  <1>         0.0572
     27 H23         3.7833  -21.6335    6.2892 H       1  <1>         0.0572
     28 H24         5.1155  -19.7031    7.7595 H       1  <1>         0.0350
     29 H25         4.9930  -18.8094    6.2254 H       1  <1>         0.0350
     30 H26         6.2016  -21.6571    6.2112 H       1  <1>         0.0572
     31 H27         8.1434  -20.6353    5.3323 H       1  <1>         0.0569
     32 H28         7.0047  -17.9044    6.2536 H       1  <1>         0.0307
     33 C4         -1.3852  -11.8218    3.4888 C.2     1  <1>         0.2133
     34 C5         -0.1896  -12.5121    4.1081 C.3     1  <1>         0.0242
     35 C6          0.8253  -12.9744    3.0249 C.3     1  <1>        -0.0414
     36 C7          1.3131  -14.4356    3.2362 C.3     1  <1>        -0.0343
     37 C8          2.3393  -14.5626    4.3368 C.2     1  <1>        -0.0876
     38 C9          3.2886  -15.5055    4.4238 C.2     1  <1>        -0.0842
     39 C10         3.5251  -16.6226    3.4352 C.3     1  <1>        -0.0165
     40 C11         2.2675  -17.4571    3.3570 C.2     1  <1>        -0.0839
     41 C12         1.7721  -18.2548    4.3158 C.2     1  <1>        -0.0839
     42 C13         2.3756  -18.4831    5.6824 C.3     1  <1>        -0.0165
     43 C14         2.6222  -19.9647    5.8444 C.2     1  <1>        -0.0839
     44 C15         3.7607  -20.5421    6.2562 C.2     1  <1>        -0.0839
     45 C16         5.0197  -19.8167    6.6700 C.3     1  <1>        -0.0165
     46 C17         6.2279  -20.5664    6.1601 C.2     1  <1>        -0.0842
     47 C18         7.3292  -19.9859    5.6606 C.2     1  <1>        -0.0876
     48 C19         7.5566  -18.4978    5.5104 C.3     1  <1>        -0.0348
     49 C20         9.0673  -18.1651    5.6354 C.3     1  <1>        -0.0496
     50 C21         9.8408  -18.5640    4.3486 C.3     1  <1>        -0.0530
     51 C22        11.3006  -18.0347    4.3737 C.3     1  <1>        -0.0559
     52 C23        12.1227  -18.7029    5.5065 C.3     1  <1>        -0.0653
     53 O2         -2.0647  -12.4286    2.6759 O.2     1  <1>        -0.2758
     54 N1         -1.6547  -10.5496    3.8691 N.am    1  <1>        -0.3105
     55 H29         7.1935  -18.2012    4.5133 H       1  <1>         0.0307
     56 H30         9.4917  -18.7067    6.4969 H       1  <1>         0.0268
     57 H31         9.1846  -17.0841    5.8158 H       1  <1>         0.0268
     58 H32         9.3222  -18.1535    3.4664 H       1  <1>         0.0265
     59 H33         9.8546  -19.6629    4.2611 H       1  <1>         0.0265
     60 H34        11.2958  -16.9432    4.5296 H       1  <1>         0.0263
     61 H35        11.7843  -18.2433    3.4048 H       1  <1>         0.0263
     62 H36        12.1594  -19.7941    5.3629 H       1  <1>         0.0230
     63 H37        11.6685  -18.4902    6.4869 H       1  <1>         0.0230
     64 H38        13.1534  -18.3145    5.5068 H       1  <1>         0.0230
     65 H39        -1.0742  -10.0854    4.5420 H       1  <1>         0.1490
@<TRIPOS>BOND
     1     6     2    1
     2     8     2    1
     3     7     2    1
     4     2     1    1
     5    15    35    1
     6    16    36    1
     7    22    40    1
     8    21    39    1
     9    53    33    2
    10    14    35    1
    11    35    36    1
    12    35    34    1
    13    36    17    1
    14    36    37    1
    15     1     5    1
    16     1    54    1
    17     1     3    1
    18    40    39    1
    19    40    41    2
    20    61    51    1
    21    39    20    1
    22    39    38    1
    23    58    50    1
    24    33    54   am
    25    33    34    1
    26     4    11    1
    27     4     3    1
    28    54    65    1
    29    23    41    1
    30    34    12    1
    31    34    13    1
    32     3     9    1
    33     3    10    1
    34    59    50    1
    35    41    42    1
    36    37    38    2
    37    37    18    1
    38    50    51    1
    39    50    49    1
    40    51    60    1
    41    51    52    1
    42    38    19    1
    43    55    48    1
    44    31    47    1
    45    62    52    1
    46    52    64    1
    47    52    63    1
    48    48    49    1
    49    48    47    1
    50    48    32    1
    51    26    43    1
    52    49    57    1
    53    49    56    1
    54    47    46    2
    55    42    25    1
    56    42    43    1
    57    42    24    1
    58    43    44    2
    59    46    30    1
    60    46    45    1
    61    29    45    1
    62    44    27    1
    63    44    45    1
    64    45    28    1
