@<TRIPOS>MOLECULE
M27
 78 77 0 0 0
SMALL
GASTEIGER
Energy = 0

@<TRIPOS>ATOM
      1 C          -4.4575   -7.8049    4.9235 C.3     1  LIG11       0.1046
      2 C          -3.0436   -8.1703    5.4606 C.3     1  LIG11       0.0725
      3 O          -2.0533   -7.2829    4.9164 O.3     1  LIG11      -0.3924
      4 C           6.4040  -19.8980   -1.7914 C.3     1  LIG11      -0.0559
      5 C           5.0085  -20.5704   -1.8808 C.3     1  LIG11      -0.0653
      6 C           8.3863  -18.6961    4.7742 C.3     1  LIG11      -0.0563
      7 C           8.1720  -21.1974    4.7431 C.3     1  LIG11      -0.0563
      8 C          -4.7587   -6.3084    5.1976 C.3     1  LIG11       0.0725
      9 O          -3.7428   -5.4916    4.5890 O.3     1  LIG11      -0.3924
     10 H          -5.2286   -8.3963    5.4500 H       1  LIG11       0.0642
     11 H          -3.0140   -8.0631    6.5591 H       1  LIG11       0.0584
     12 H          -2.7757   -9.2142    5.2259 H       1  LIG11       0.0584
     13 H          -2.2892   -6.3662    5.0424 H       1  LIG11       0.2095
     14 H           6.2758  -18.8030   -1.7692 H       1  LIG11       0.0263
     15 H           6.9852  -20.1594   -2.6916 H       1  LIG11       0.0263
     16 H           4.4157  -20.3342   -0.9821 H       1  LIG11       0.0230
     17 H           4.4623  -20.2064   -2.7662 H       1  LIG11       0.0230
     18 H           5.1131  -21.6650   -1.9545 H       1  LIG11       0.0230
     19 H           7.8467  -17.7378    4.8230 H       1  LIG11       0.0238
     20 H           9.0101  -18.7696    5.6760 H       1  LIG11       0.0238
     21 H           9.0586  -18.6706    3.9029 H       1  LIG11       0.0238
     22 H           7.5088  -22.0711    4.7737 H       1  LIG11       0.0238
     23 H           8.8256  -21.3237    3.8671 H       1  LIG11       0.0238
     24 H           8.8202  -21.1901    5.6323 H       1  LIG11       0.0238
     25 H          -5.7538   -6.0476    4.7976 H       1  LIG11       0.0584
     26 H          -4.7676   -6.1414    6.2895 H       1  LIG11       0.0584
     27 H          -3.6673   -5.6397    3.6503 H       1  LIG11       0.2095
     28 H          -4.7649   -9.5929    2.1894 H       1  LIG11       0.0560
     29 H          -4.2335  -10.0693    3.8177 H       1  LIG11       0.0560
     30 H          -2.5196   -8.4035    1.8590 H       1  LIG11       0.0287
     31 H          -2.0402   -9.0319    3.4555 H       1  LIG11       0.0287
     32 H          -2.8947  -10.8627    1.1614 H       1  LIG11       0.0269
     33 C          -4.1280   -9.3012    3.0422 C.3     1  LIG11       0.0482
     34 C          -2.6543   -9.2422    2.5624 C.3     1  LIG11      -0.0292
     35 C          -2.1433  -10.5634    1.9133 C.3     1  LIG11      -0.0475
     36 C          -1.9954  -11.7691    2.8905 C.3     1  LIG11      -0.0347
     37 C          -0.8561  -11.6813    3.8812 C.2     1  LIG11      -0.0876
     38 C           0.0585  -12.6400    4.0919 C.2     1  LIG11      -0.0842
     39 C           0.1237  -13.9608    3.3611 C.3     1  LIG11      -0.0165
     40 C           1.4880  -14.1259    2.7345 C.2     1  LIG11      -0.0839
     41 C           2.5024  -14.8681    3.2069 C.2     1  LIG11      -0.0839
     42 C           2.4984  -15.6898    4.4763 C.3     1  LIG11      -0.0165
     43 C           2.6113  -17.1513    4.1102 C.2     1  LIG11      -0.0839
     44 C           3.6444  -17.9752    4.3478 C.2     1  LIG11      -0.0839
     45 C           4.9423  -17.6385    5.0466 C.3     1  LIG11      -0.0165
     46 C           5.3651  -18.7701    5.9572 C.2     1  LIG11      -0.0837
     47 C           6.3517  -19.6698    5.7935 C.2     1  LIG11      -0.0820
     48 C           7.3616  -19.8710    4.6639 C.3     1  LIG11      -0.0169
     49 C           6.5446  -19.7823    3.3339 C.3     1  LIG11      -0.0444
     50 C           7.3262  -20.1216    2.0318 C.3     1  LIG11      -0.0523
     51 C           6.4292  -19.9406    0.7751 C.3     1  LIG11      -0.0530
     52 C           7.1743  -20.3569   -0.5231 C.3     1  LIG11      -0.0533
     53 H          -1.2000  -10.3735    1.3779 H       1  LIG11       0.0269
     54 O          -4.5232   -7.9882    3.4916 O.3     1  LIG11      -0.3720
     55 H          -2.9363  -11.8975    3.4493 H       1  LIG11       0.0307
     56 H          -1.8582  -12.6916    2.3066 H       1  LIG11       0.0307
     57 H          -0.7796  -10.7745    4.4841 H       1  LIG11       0.0569
     58 H           0.8172  -12.4617    4.8572 H       1  LIG11       0.0572
     59 H          -0.1512  -14.7870    4.0256 H       1  LIG11       0.0350
     60 H          -0.6161  -13.9540    2.5454 H       1  LIG11       0.0350
     61 H           1.6478  -13.5890    1.7957 H       1  LIG11       0.0572
     62 H           3.4193  -14.8916    2.6134 H       1  LIG11       0.0572
     63 H           3.3203  -15.3269    5.1052 H       1  LIG11       0.0350
     64 H           1.5816  -15.5451    5.0622 H       1  LIG11       0.0350
     65 H           1.7497  -17.5736    3.5899 H       1  LIG11       0.0572
     66 H           3.5540  -19.0036    3.9878 H       1  LIG11       0.0572
     67 H           5.6895  -17.5320    4.2431 H       1  LIG11       0.0350
     68 H           4.9642  -16.6972    5.6055 H       1  LIG11       0.0350
     69 H           4.7843  -18.8496    6.8815 H       1  LIG11       0.0572
     70 H           6.4557  -20.3683    6.6277 H       1  LIG11       0.0574
     71 H           5.6873  -20.4709    3.4040 H       1  LIG11       0.0273
     72 H           6.1416  -18.7605    3.2359 H       1  LIG11       0.0273
     73 H           8.1980  -19.4584    1.9280 H       1  LIG11       0.0266
     74 H           7.6774  -21.1644    2.0584 H       1  LIG11       0.0266
     75 H           5.5184  -20.5523    0.8827 H       1  LIG11       0.0265
     76 H           6.1264  -18.8838    0.6910 H       1  LIG11       0.0265
     77 H           7.2894  -21.4532   -0.5436 H       1  LIG11       0.0265
     78 H           8.1800  -19.9047   -0.5278 H       1  LIG11       0.0265
@<TRIPOS>BOND
     1    17     5    1
     2    15     4    1
     3    18     5    1
     4     5     4    1
     5     5    16    1
     6     4    14    1
     7     4    52    1
     8    77    52    1
     9    78    52    1
    10    52    51    1
    11    76    51    1
    12    51    75    1
    13    51    50    1
    14    32    35    1
    15    53    35    1
    16    61    40    1
    17    30    34    1
    18    35    34    1
    19    35    36    1
    20    73    50    1
    21    50    74    1
    22    50    49    1
    23    28    33    1
    24    56    36    1
    25    60    39    1
    26    34    33    1
    27    34    31    1
    28    62    41    1
    29    40    41    2
    30    40    39    1
    31    36    55    1
    32    36    37    1
    33    33    54    1
    34    33    29    1
    35    41    42    1
    36    72    49    1
    37    49    71    1
    38    49    48    1
    39    39    59    1
    40    39    38    1
    41    54     1    1
    42    65    43    1
    43    27     9    1
    44    23     7    1
    45    37    38    2
    46    37    57    1
    47    21     6    1
    48    66    44    1
    49    38    58    1
    50    43    44    2
    51    43    42    1
    52    67    45    1
    53    44    45    1
    54    42    64    1
    55    42    63    1
    56     9     8    1
    57    48     7    1
    58    48     6    1
    59    48    47    1
    60     7    22    1
    61     7    24    1
    62     6    19    1
    63     6    20    1
    64    25     8    1
    65     3    13    1
    66     3     2    1
    67     1     8    1
    68     1    10    1
    69     1     2    1
    70    45    68    1
    71    45    46    1
    72     8    26    1
    73    12     2    1
    74     2    11    1
    75    47    46    2
    76    47    70    1
    77    46    69    1
