@<TRIPOS>MOLECULE
M29
 74 73 0 0 0
SMALL
GASTEIGER
Energy = 0

@<TRIPOS>ATOM
      1 C          -4.7077   -9.9213    1.6458 C.3     1  LIG11       0.0834
      2 O          -4.9283  -11.2343    1.0987 O.3     1  LIG11      -0.3913
      3 O          -3.2752  -12.3606    2.7141 O.2     1  LIG11      -0.2508
      4 C           9.9626  -18.2746    3.7579 C.3     1  LIG11      -0.0559
      5 C          10.5299  -16.8826    4.1399 C.3     1  LIG11      -0.0653
      6 C           5.7065  -21.7917    0.6834 C.3     1  LIG11      -0.0563
      7 C           6.9709  -20.1472   -0.7350 C.3     1  LIG11      -0.0563
      8 C          -4.5797   -8.7028    3.8939 C.3     1  LIG11       0.0834
      9 O          -5.8613   -8.1600    3.5339 O.3     1  LIG11      -0.3913
     10 H          -5.6345   -9.3151    1.5820 H       1  LIG11       0.0595
     11 H          -3.9115   -9.4090    1.0718 H       1  LIG11       0.0595
     12 H          -5.1562  -11.2123    0.1699 H       1  LIG11       0.2096
     13 H          10.4764  -19.0501    4.3495 H       1  LIG11       0.0263
     14 H          10.1674  -18.4641    2.6909 H       1  LIG11       0.0263
     15 H          10.1344  -16.1113    3.4598 H       1  LIG11       0.0230
     16 H          10.2437  -16.6194    5.1699 H       1  LIG11       0.0230
     17 H          11.6288  -16.8824    4.0682 H       1  LIG11       0.0230
     18 H           5.2834  -22.2524   -0.2251 H       1  LIG11       0.0238
     19 H           6.6345  -22.3317    0.9221 H       1  LIG11       0.0238
     20 H           5.0002  -21.9563    1.5139 H       1  LIG11       0.0238
     21 H           7.0102  -19.1229   -1.1305 H       1  LIG11       0.0238
     22 H           7.9893  -20.4015   -0.4113 H       1  LIG11       0.0238
     23 H           6.7042  -20.8510   -1.5377 H       1  LIG11       0.0238
     24 H          -4.5450   -8.8641    4.9826 H       1  LIG11       0.0595
     25 H          -3.8177   -7.9465    3.6402 H       1  LIG11       0.0595
     26 H          -6.5875   -8.6781    3.8690 H       1  LIG11       0.2096
     27 H          -0.8800  -12.9047    2.3469 H       1  LIG11       0.0380
     28 H          -0.3024  -11.2582    2.2601 H       1  LIG11       0.0380
     29 H           0.6385  -11.8116    4.3137 H       1  LIG11       0.0312
     30 H          -0.9451  -11.3647    4.9593 H       1  LIG11       0.0312
     31 H          -1.3110  -13.6670    5.6048 H       1  LIG11       0.0569
     32 H          -0.0159  -15.5057    4.8733 H       1  LIG11       0.0572
     33 O          -2.8297  -10.2469    3.0889 O.3     1  LIG11      -0.4567
     34 C          -2.4095  -11.5082    2.8667 C.2     1  LIG11       0.3078
     35 C          -0.9542  -11.9207    2.8439 C.3     1  LIG11       0.0484
     36 C          -0.4319  -12.0797    4.3000 C.3     1  LIG11      -0.0247
     37 C          -0.5564  -13.4856    4.8376 C.2     1  LIG11      -0.0871
     38 C           0.1923  -14.5272    4.4350 C.2     1  LIG11      -0.0842
     39 C           1.3113  -14.4438    3.4257 C.3     1  LIG11      -0.0165
     40 C           2.6141  -14.8685    4.0571 C.2     1  LIG11      -0.0839
     41 C           3.4707  -15.7838    3.5757 C.2     1  LIG11      -0.0839
     42 C           3.3017  -16.5874    2.2999 C.3     1  LIG11      -0.0165
     43 C           3.4938  -15.6747    1.1079 C.2     1  LIG11      -0.0839
     44 C           4.2509  -15.9073    0.0218 C.2     1  LIG11      -0.0839
     45 C           5.0691  -17.1453   -0.2661 C.3     1  LIG11      -0.0165
     46 C           4.2158  -18.3885   -0.1223 C.2     1  LIG11      -0.0837
     47 C           4.5831  -19.6486    0.1665 C.2     1  LIG11      -0.0820
     48 C           5.9532  -20.2678    0.4352 C.3     1  LIG11      -0.0169
     49 C           6.4898  -19.5743    1.7309 C.3     1  LIG11      -0.0444
     50 C           7.7704  -20.1994    2.3556 C.3     1  LIG11      -0.0523
     51 C           7.9099  -19.8053    3.8540 C.3     1  LIG11      -0.0530
     52 C           8.4325  -18.3525    4.0158 C.3     1  LIG11      -0.0533
     53 H           1.0493  -15.0126    2.5271 H       1  LIG11       0.0350
     54 C          -4.2562  -10.0224    3.1280 C.3     1  LIG11       0.1488
     55 H           1.4116  -13.3943    3.1145 H       1  LIG11       0.0350
     56 H           2.8811  -14.3676    4.9890 H       1  LIG11       0.0572
     57 H           4.3837  -15.9654    4.1497 H       1  LIG11       0.0572
     58 H           4.0262  -17.4171    2.3305 H       1  LIG11       0.0350
     59 H           2.3029  -17.0489    2.2415 H       1  LIG11       0.0350
     60 H           2.9577  -14.7243    1.1462 H       1  LIG11       0.0572
     61 H           4.2978  -15.1160   -0.7291 H       1  LIG11       0.0572
     62 H           5.3898  -17.0550   -1.3170 H       1  LIG11       0.0350
     63 H           5.9868  -17.2603    0.3245 H       1  LIG11       0.0350
     64 H           3.1444  -18.2161   -0.2673 H       1  LIG11       0.0572
     65 H           3.7447  -20.3461    0.2341 H       1  LIG11       0.0574
     66 H           6.7066  -18.5208    1.4964 H       1  LIG11       0.0273
     67 H           5.6949  -19.5879    2.4943 H       1  LIG11       0.0273
     68 H           7.7294  -21.2978    2.2948 H       1  LIG11       0.0266
     69 H           8.6701  -19.8506    1.8256 H       1  LIG11       0.0266
     70 H           6.9286  -19.8953    4.3514 H       1  LIG11       0.0265
     71 H           8.6114  -20.4986    4.3493 H       1  LIG11       0.0265
     72 H           8.2155  -17.9952    5.0359 H       1  LIG11       0.0265
     73 H           7.9123  -17.6943    3.3008 H       1  LIG11       0.0265
     74 H          -4.8507  -10.8583    3.5477 H       1  LIG11       0.0780
@<TRIPOS>BOND
     1    23     7    1
     2    62    45    1
     3    21     7    1
     4     7    22    1
     5     7    48    1
     6    61    44    1
     7    64    46    1
     8    45    46    1
     9    45    44    1
    10    45    63    1
    11    18     6    1
    12    46    47    2
    13    44    43    2
    14    47    65    1
    15    47    48    1
    16    12     2    1
    17    48     6    1
    18    48    49    1
    19     6    19    1
    20     6    20    1
    21    11     1    1
    22     2     1    1
    23    43    60    1
    24    43    42    1
    25    66    49    1
    26    10     1    1
    27     1    54    1
    28    49    50    1
    29    49    67    1
    30    69    50    1
    31    59    42    1
    32    28    35    1
    33    68    50    1
    34    42    58    1
    35    42    41    1
    36    27    35    1
    37    50    51    1
    38    53    39    1
    39    14     4    1
    40     3    34    2
    41    35    34    1
    42    35    36    1
    43    34    33    1
    44    33    54    1
    45    55    39    1
    46    54    74    1
    47    54     8    1
    48    73    52    1
    49    39    40    1
    50    39    38    1
    51    15     5    1
    52     9    26    1
    53     9     8    1
    54    41    40    2
    55    41    57    1
    56    25     8    1
    57     4    52    1
    58     4     5    1
    59     4    13    1
    60    51    52    1
    61    51    71    1
    62    51    70    1
    63     8    24    1
    64    52    72    1
    65    40    56    1
    66    17     5    1
    67     5    16    1
    68    36    29    1
    69    36    37    1
    70    36    30    1
    71    38    37    2
    72    38    32    1
    73    37    31    1
