@<TRIPOS>MOLECULE
M31
 75 74 0 0 0
SMALL
GASTEIGER
Energy = 0

@<TRIPOS>ATOM
      1 C          -4.0395   -6.7724    4.6722 C.3     1  LIG11       0.0725
      2 O          -2.6972   -6.3715    4.3612 O.3     1  LIG11      -0.3924
      3 C          -3.6427   -8.2614    6.6903 C.3     1  LIG11       0.0725
      4 C          11.1423  -18.2418    5.1950 C.3     1  LIG11      -0.0559
      5 C          12.5043  -18.9893    5.2053 C.3     1  LIG11      -0.0653
      6 C           4.0771  -19.6320    2.8056 C.3     1  LIG11      -0.0563
      7 C           6.0421  -20.9719    2.0274 C.3     1  LIG11      -0.0563
      8 O          -4.7572   -8.0035    7.5490 O.3     1  LIG11      -0.3924
      9 H          -4.6746   -6.7089    3.7713 H       1  LIG11       0.0584
     10 H          -4.4622   -6.1023    5.4396 H       1  LIG11       0.0584
     11 H          -2.2149   -7.0336    3.8772 H       1  LIG11       0.2095
     12 H          -3.2943   -9.2668    7.0031 H       1  LIG11       0.0584
     13 H          -2.8334   -7.5376    6.8825 H       1  LIG11       0.0584
     14 H          11.3249  -17.1544    5.1903 H       1  LIG11       0.0263
     15 H          10.5888  -18.4955    6.1166 H       1  LIG11       0.0263
     16 H          13.0319  -18.8215    4.2523 H       1  LIG11       0.0230
     17 H          13.1361  -18.6206    6.0282 H       1  LIG11       0.0230
     18 H          12.3510  -20.0723    5.3363 H       1  LIG11       0.0230
     19 H           4.0161  -20.3910    3.5987 H       1  LIG11       0.0238
     20 H           3.7082  -18.6873    3.2313 H       1  LIG11       0.0238
     21 H           3.3878  -19.9235    1.9980 H       1  LIG11       0.0238
     22 H           6.0161  -21.5769    2.9423 H       1  LIG11       0.0238
     23 H           5.4112  -21.4881    1.2891 H       1  LIG11       0.0238
     24 H           7.0626  -20.9549    1.6183 H       1  LIG11       0.0238
     25 H          -5.4691   -8.6529    7.4650 H       1  LIG11       0.2095
     26 H          -4.5685   -9.6010    2.9990 H       1  LIG11       0.0560
     27 H          -3.7078   -8.1559    2.4486 H       1  LIG11       0.0560
     28 H          -3.2019  -10.2643    1.1200 H       1  LIG11       0.0290
     29 H          -1.7441   -9.5585    1.8036 H       1  LIG11       0.0290
     30 H          -3.3173  -11.8306    3.1748 H       1  LIG11       0.0308
     31 H          -2.0477  -12.1554    1.9907 H       1  LIG11       0.0308
     32 H          -1.6002  -10.6367    4.6775 H       1  LIG11       0.0569
     33 O          -3.1378   -8.9522    4.3070 O.3     1  LIG11      -0.3720
     34 C          -3.5734   -9.1323    2.9386 C.3     1  LIG11       0.0485
     35 C          -2.6783  -10.0664    2.0716 C.3     1  LIG11      -0.0260
     36 C          -2.3797  -11.4296    2.7510 C.3     1  LIG11      -0.0327
     37 C          -1.3726  -11.3368    3.8717 C.2     1  LIG11      -0.0876
     38 C          -0.2370  -12.0463    3.9633 C.2     1  LIG11      -0.0842
     39 C           0.2594  -13.0309    2.9381 C.3     1  LIG11      -0.0165
     40 C           0.2782  -14.4207    3.5297 C.2     1  LIG11      -0.0839
     41 C           1.3676  -15.1640    3.7770 C.2     1  LIG11      -0.0839
     42 C           2.7969  -14.7485    3.4998 C.3     1  LIG11      -0.0165
     43 C           3.0015  -14.6205    2.0072 C.2     1  LIG11      -0.0839
     44 C           3.3061  -15.6053    1.1497 C.2     1  LIG11      -0.0839
     45 C           3.4800  -17.0711    1.4763 C.3     1  LIG11      -0.0165
     46 C           4.6633  -17.6243    0.7141 C.2     1  LIG11      -0.0837
     47 C           5.4928  -18.6281    1.0511 C.2     1  LIG11      -0.0820
     48 C           5.5463  -19.5227    2.2913 C.3     1  LIG11      -0.0169
     49 C           6.4533  -18.7897    3.3268 C.3     1  LIG11      -0.0444
     50 C           7.9524  -18.6676    2.9345 C.3     1  LIG11      -0.0523
     51 C           8.8185  -18.1884    4.1263 C.3     1  LIG11      -0.0530
     52 C          10.2974  -18.6312    3.9553 C.3     1  LIG11      -0.0533
     53 H           0.3787  -11.9052    4.8535 H       1  LIG11       0.0572
     54 C          -4.0329   -8.2380    5.1899 C.3     1  LIG11       0.1046
     55 H          -0.3251  -12.9512    2.0116 H       1  LIG11       0.0350
     56 H           1.2978  -12.7617    2.6795 H       1  LIG11       0.0350
     57 H          -0.6947  -14.8440    3.7926 H       1  LIG11       0.0572
     58 H           1.2128  -16.1450    4.2261 H       1  LIG11       0.0572
     59 H           2.9790  -13.8041    4.0281 H       1  LIG11       0.0350
     60 H           3.5020  -15.4851    3.9102 H       1  LIG11       0.0350
     61 H           2.8931  -13.6214    1.5809 H       1  LIG11       0.0572
     62 H           3.4552  -15.3324    0.1025 H       1  LIG11       0.0572
     63 H           3.6964  -17.1240    2.5565 H       1  LIG11       0.0350
     64 H           2.5983  -17.6980    1.3061 H       1  LIG11       0.0350
     65 H           4.8507  -17.1446   -0.2513 H       1  LIG11       0.0572
     66 H           6.2472  -18.8537    0.2932 H       1  LIG11       0.0574
     67 H           6.0640  -17.7712    3.4803 H       1  LIG11       0.0273
     68 H           6.3916  -19.3155    4.2939 H       1  LIG11       0.0273
     69 H           8.3378  -19.6443    2.6050 H       1  LIG11       0.0266
     70 H           8.0734  -17.9445    2.1138 H       1  LIG11       0.0266
     71 H           8.7763  -17.0897    4.1954 H       1  LIG11       0.0265
     72 H           8.4211  -18.6129    5.0627 H       1  LIG11       0.0265
     73 H          10.7210  -18.1484    3.0567 H       1  LIG11       0.0265
     74 H          10.3412  -19.7243    3.8167 H       1  LIG11       0.0265
     75 H          -5.0710   -8.5979    5.0850 H       1  LIG11       0.0642
@<TRIPOS>BOND
     1    65    46    1
     2    62    44    1
     3    66    47    1
     4    46    47    2
     5    46    45    1
     6    47    48    1
     7    28    35    1
     8    44    45    1
     9    44    43    2
    10    23     7    1
    11    64    45    1
    12    45    63    1
    13    61    43    1
    14    24     7    1
    15    29    35    1
    16    31    36    1
    17    21     6    1
    18    43    42    1
    19    55    39    1
    20     7    48    1
    21     7    22    1
    22    35    36    1
    23    35    34    1
    24    70    50    1
    25    48     6    1
    26    48    49    1
    27    27    34    1
    28    69    50    1
    29    56    39    1
    30    36    30    1
    31    36    37    1
    32     6    20    1
    33     6    19    1
    34    50    49    1
    35    50    51    1
    36    39    40    1
    37    39    38    1
    38    34    26    1
    39    34    33    1
    40    73    52    1
    41    49    67    1
    42    49    68    1
    43    42    41    1
    44    42    60    1
    45    42    59    1
    46    40    41    2
    47    40    57    1
    48     9     1    1
    49    41    58    1
    50    74    52    1
    51    37    38    2
    52    37    32    1
    53    11     2    1
    54    52    51    1
    55    52     4    1
    56    38    53    1
    57    51    71    1
    58    51    72    1
    59    16     5    1
    60    33    54    1
    61     2     1    1
    62     1    54    1
    63     1    10    1
    64    75    54    1
    65    54     3    1
    66    14     4    1
    67     4     5    1
    68     4    15    1
    69     5    18    1
    70     5    17    1
    71     3    13    1
    72     3    12    1
    73     3     8    1
    74    25     8    1
