@<TRIPOS>MOLECULE
M32
 64 63 0 0 0
SMALL
GASTEIGER
Energy = 0

@<TRIPOS>ATOM
      1 C          -2.0461  -10.4909    3.2616 C.2     1  LIG11       0.2128
      2 O          -1.5033  -10.3013    4.3388 O.2     1  LIG11      -0.2758
      3 H          -2.1703   -9.0218    1.7169 H       1  LIG11       0.0356
      4 C          -2.7713   -9.3550    2.5778 C.3     1  LIG11       0.0211
      5 C          -3.0363   -8.1478    3.5161 C.3     1  LIG11      -0.0570
      6 H          -3.7351   -9.7360    2.2047 H       1  LIG11       0.0356
      7 H          -3.4835   -7.3177    2.9467 H       1  LIG11       0.0234
      8 H          -3.7308   -8.4315    4.3224 H       1  LIG11       0.0234
      9 H          -2.0946   -7.7962    3.9654 H       1  LIG11       0.0234
     10 H          -1.6868  -13.7470    2.7270 H       1  LIG11       0.0462
     11 H          -1.7554  -12.9356    4.3104 H       1  LIG11       0.0462
     12 H           0.5417  -12.7818    2.2302 H       1  LIG11       0.0280
     13 H           0.4321  -11.7504    3.6690 H       1  LIG11       0.0280
     14 H           0.7269  -13.6283    5.1831 H       1  LIG11       0.0269
     15 H           0.3458  -14.8224    3.9285 H       1  LIG11       0.0269
     16 H           2.8800  -13.0715    4.1677 H       1  LIG11       0.0307
     17 H           2.7889  -14.8109    4.4679 H       1  LIG11       0.0307
     18 H           2.8846  -13.3304    1.7869 H       1  LIG11       0.0569
     19 H           3.0306  -15.4193    0.7128 H       1  LIG11       0.0572
     20 H           2.1916  -16.6584    3.4485 H       1  LIG11       0.0350
     21 H           1.7006  -17.2439    1.8572 H       1  LIG11       0.0350
     22 H           4.3678  -17.4348    1.3684 H       1  LIG11       0.0572
     23 H           5.0654  -19.1327    2.8277 H       1  LIG11       0.0572
     24 H           2.4098  -18.6554    4.2842 H       1  LIG11       0.0350
     25 H           3.3910  -20.1140    4.4368 H       1  LIG11       0.0350
     26 H           4.1110  -17.3788    5.6916 H       1  LIG11       0.0572
     27 H           5.3747  -18.5755    7.2485 H       1  LIG11       0.0572
     28 H           5.9096  -20.8413    7.2342 H       1  LIG11       0.0350
     29 H           4.3244  -21.2495    6.5477 H       1  LIG11       0.0350
     30 H           5.4026  -21.8682    4.5546 H       1  LIG11       0.0572
     31 H           7.3057  -20.8152    3.6116 H       1  LIG11       0.0569
     32 H           7.0777  -18.3556    5.0093 H       1  LIG11       0.0307
     33 C          -1.3873  -12.8404    3.2788 C.3     1  LIG11       0.0116
     34 C           0.1661  -12.7422    3.2650 C.3     1  LIG11      -0.0371
     35 C           0.8484  -13.8602    4.1112 C.3     1  LIG11      -0.0482
     36 C           2.3759  -13.9986    3.8483 C.3     1  LIG11      -0.0347
     37 C           2.6978  -14.2226    2.3892 C.2     1  LIG11      -0.0876
     38 C           2.7688  -15.4102    1.7735 C.2     1  LIG11      -0.0842
     39 C           2.5202  -16.7585    2.4076 C.3     1  LIG11      -0.0165
     40 C           3.7545  -17.6189    2.2537 C.2     1  LIG11      -0.0839
     41 C           4.1536  -18.5912    3.0880 C.2     1  LIG11      -0.0839
     42 C           3.4432  -19.0201    4.3510 C.3     1  LIG11      -0.0165
     43 C           4.1910  -18.4567    5.5380 C.2     1  LIG11      -0.0839
     44 C           4.9328  -19.1389    6.4243 C.2     1  LIG11      -0.0839
     45 C           5.2165  -20.6250    6.4079 C.3     1  LIG11      -0.0165
     46 C           5.8486  -21.0310    5.0955 C.2     1  LIG11      -0.0842
     47 C           6.9245  -20.4334    4.5615 C.2     1  LIG11      -0.0876
     48 C           7.6743  -19.2679    5.1690 C.3     1  LIG11      -0.0348
     49 C           9.0624  -19.1153    4.4923 C.3     1  LIG11      -0.0496
     50 C           9.8525  -17.9230    5.1003 C.3     1  LIG11      -0.0530
     51 C          11.2761  -17.8189    4.4880 C.3     1  LIG11      -0.0559
     52 C          12.2530  -18.8284    5.1469 C.3     1  LIG11      -0.0653
     53 H           7.8242  -19.3814    6.2525 H       1  LIG11       0.0307
     54 N          -2.0328  -11.6937    2.6406 N.am    1  LIG11      -0.3153
     55 H           9.6370  -20.0430    4.6414 H       1  LIG11       0.0268
     56 H           8.9334  -18.9614    3.4084 H       1  LIG11       0.0268
     57 H           9.3018  -16.9872    4.9124 H       1  LIG11       0.0265
     58 H           9.9401  -18.0554    6.1911 H       1  LIG11       0.0265
     59 H          11.2272  -18.0232    3.4058 H       1  LIG11       0.0263
     60 H          11.6619  -16.7956    4.6272 H       1  LIG11       0.0263
     61 H          12.3613  -18.6047    6.2198 H       1  LIG11       0.0230
     62 H          11.8728  -19.8557    5.0405 H       1  LIG11       0.0230
     63 H          13.2463  -18.7673    4.6760 H       1  LIG11       0.0230
     64 H          -2.4922  -11.8140    1.7575 H       1  LIG11       0.1487
@<TRIPOS>BOND
     1    19    38    1
     2    22    40    1
     3     3     4    1
     4    64    54    1
     5    38    37    2
     6    38    39    1
     7    18    37    1
     8    21    39    1
     9     6     4    1
    10    12    34    1
    11    40    39    1
    12    40    41    2
    13    37    36    1
    14    39    20    1
    15     4     1    1
    16     4     5    1
    17    54     1   am
    18    54    33    1
    19    10    33    1
    20    23    41    1
    21     7     5    1
    22    41    42    1
    23     1     2    2
    24    34    33    1
    25    34    13    1
    26    34    35    1
    27    33    11    1
    28    59    51    1
    29    56    49    1
    30     5     9    1
    31     5     8    1
    32    31    47    1
    33    36    35    1
    34    36    16    1
    35    36    17    1
    36    15    35    1
    37    35    14    1
    38    24    42    1
    39    42    25    1
    40    42    43    1
    41    51    60    1
    42    51    50    1
    43    51    52    1
    44    49    55    1
    45    49    50    1
    46    49    48    1
    47    30    46    1
    48    47    46    2
    49    47    48    1
    50    63    52    1
    51    57    50    1
    52    32    48    1
    53    62    52    1
    54    46    45    1
    55    50    58    1
    56    52    61    1
    57    48    53    1
    58    43    26    1
    59    43    44    2
    60    45    44    1
    61    45    29    1
    62    45    28    1
    63    44    27    1
