@<TRIPOS>MOLECULE
M6
 59 61 0 0 0
SMALL
GASTEIGER
Energy = 0

@<TRIPOS>ATOM
      1 C           2.1374  -13.3040    0.5761 C.2     1  LIG11      -0.0759
      2 C           0.9467  -12.9317    1.0722 C.2     1  LIG11      -0.0846
      3 C           0.2877  -13.5994    2.2540 C.3     1  LIG11      -0.0275
      4 C           1.3104  -14.4500    3.0524 C.3     1  LIG11       0.0091
      5 C           0.7240  -15.2593    4.2467 C.3     1  LIG11       0.1087
      6 H           3.3885  -17.6228    5.9509 H       1  LIG11       0.0657
      7 C           2.7711  -12.5866   -0.5954 C.3     1  LIG11      -0.0438
      8 C           2.7551  -16.5872    4.2042 C.ar    1  LIG11       0.1285
      9 C           0.0016  -14.3332    5.2693 C.3     1  LIG11      -0.0249
     10 C          -0.2389  -16.4121    3.8384 C.3     1  LIG11      -0.0249
     11 C           5.4734  -19.1880    5.0568 C.3     1  LIG11      -0.0096
     12 C           6.7333  -19.5919    4.2096 C.3     1  LIG11      -0.0438
     13 C           7.8208  -20.4749    4.8983 C.3     1  LIG11      -0.0515
     14 C           9.2884  -20.0674    4.6124 C.3     1  LIG11      -0.0434
     15 C           9.6403  -18.7172    5.2879 C.3     1  LIG11       0.0033
     16 C           3.5497  -17.5126    4.8851 C.ar    1  LIG11      -0.0157
     17 C           4.5293  -18.2711    4.2308 C.ar    1  LIG11      -0.0348
     18 C           4.5953  -18.1593    2.8348 C.ar    1  LIG11      -0.0160
     19 C           3.7305  -17.3140    2.1269 C.ar    1  LIG11       0.1241
     20 C           2.8745  -16.4450    2.8151 C.ar    1  LIG11       0.0394
     21 C           2.0682  -15.3703    2.0621 C.3     1  LIG11       0.0014
     22 C           2.9324  -14.4556    1.1511 C.3     1  LIG11      -0.0245
     23 H           4.4973  -17.6883    0.3301 H       1  LIG11       0.2921
     24 H           5.3158  -18.7301    2.2666 H       1  LIG11       0.0657
     25 H           1.3442  -15.9061    1.4267 H       1  LIG11       0.0358
     26 H           3.3442  -15.0323    0.3108 H       1  LIG11       0.0316
     27 H           0.4049  -12.1032    0.6128 H       1  LIG11       0.0572
     28 H           3.7773  -14.0493    1.7293 H       1  LIG11       0.0316
     29 H          -0.5391  -14.2167    1.8696 H       1  LIG11       0.0312
     30 H          -0.1328  -12.8088    2.8974 H       1  LIG11       0.0312
     31 H           2.0437  -13.7528    3.4946 H       1  LIG11       0.0348
     32 H           2.2183  -12.7365   -1.5359 H       1  LIG11       0.0274
     33 H           3.7984  -12.9546   -0.7355 H       1  LIG11       0.0274
     34 BR         11.5067  -18.2818    4.9880 Br      1  LIG11      -0.0918
     35 H           0.6594  -13.5203    5.6130 H       1  LIG11       0.0268
     36 H          -0.3363  -14.9065    6.1466 H       1  LIG11       0.0268
     37 H          -0.8850  -13.8758    4.8019 H       1  LIG11       0.0268
     38 H           0.2278  -17.0723    3.0917 H       1  LIG11       0.0268
     39 H          -1.1506  -15.9813    3.3951 H       1  LIG11       0.0268
     40 H          -0.5501  -17.0210    4.6988 H       1  LIG11       0.0268
     41 C           5.9464  -18.3661    6.2974 C.3     1  LIG11      -0.0558
     42 C           4.7757  -20.4656    5.6380 C.3     1  LIG11      -0.0558
     43 H           7.2192  -18.6823    3.8205 H       1  LIG11       0.0274
     44 H           6.4119  -20.1632    3.3219 H       1  LIG11       0.0274
     45 H           7.6726  -21.5073    4.5367 H       1  LIG11       0.0266
     46 H           7.6726  -20.4922    5.9891 H       1  LIG11       0.0266
     47 H           9.4407  -19.9507    3.5276 H       1  LIG11       0.0273
     48 H           9.9665  -20.8452    4.9968 H       1  LIG11       0.0273
     49 H           2.8053  -11.5069   -0.3858 H       1  LIG11       0.0274
     50 H           9.4705  -18.7708    6.3743 H       1  LIG11       0.0382
     51 O           1.8513  -15.8155    4.9408 O.3     1  LIG11      -0.4855
     52 O           3.7062  -17.3385    0.7284 O.3     1  LIG11      -0.5064
     53 H           6.0223  -17.2975    6.0438 H       1  LIG11       0.0238
     54 H           6.9333  -18.6921    6.6570 H       1  LIG11       0.0238
     55 H           5.2333  -18.4763    7.1296 H       1  LIG11       0.0238
     56 H           3.8320  -20.2469    6.1517 H       1  LIG11       0.0238
     57 H           5.4303  -20.9891    6.3520 H       1  LIG11       0.0238
     58 H           4.5482  -21.1866    4.8366 H       1  LIG11       0.0238
     59 H           9.0259  -17.9041    4.8728 H       1  LIG11       0.0382
@<TRIPOS>BOND
     1    32     7    1
     2    33     7    1
     3     7    49    1
     4     7     1    1
     5    26    22    1
     6    23    52    1
     7     1     2    2
     8     1    22    1
     9    27     2    1
    10    52    19    1
    11     2     3    1
    12    22    28    1
    13    22    21    1
    14    25    21    1
    15    29     3    1
    16    21    20    1
    17    21     4    1
    18    19    20   ar
    19    19    18   ar
    20     3    30    1
    21     3     4    1
    22    24    18    1
    23    20     8   ar
    24    18    17   ar
    25     4    31    1
    26     4     5    1
    27    38    10    1
    28    44    12    1
    29    39    10    1
    30    47    14    1
    31    43    12    1
    32    10     5    1
    33    10    40    1
    34     8    16   ar
    35     8    51    1
    36    12    13    1
    37    12    11    1
    38    17    16   ar
    39    17    11    1
    40     5    51    1
    41     5     9    1
    42    45    13    1
    43    14    13    1
    44    14    48    1
    45    14    15    1
    46    37     9    1
    47    58    42    1
    48    59    15    1
    49    16     6    1
    50    13    46    1
    51    34    15    1
    52    11    42    1
    53    11    41    1
    54     9    35    1
    55     9    36    1
    56    15    50    1
    57    42    56    1
    58    42    57    1
    59    53    41    1
    60    41    54    1
    61    41    55    1
