@<TRIPOS>MOLECULE
M7
 49 51 0 0 0
SMALL
GASTEIGER
Energy = 0

@<TRIPOS>ATOM
      1 H           4.7608  -18.8924   -5.0263 H       1  LIG11       0.0278
      2 H           6.0993  -20.0835   -5.0203 H       1  LIG11       0.0278
      3 H           6.4563  -18.3336   -4.9522 H       1  LIG11       0.0278
      4 H           4.1525  -21.3856    1.1830 H       1  LIG11       0.0271
      5 H           4.7648  -20.9214    2.7947 H       1  LIG11       0.0271
      6 H           5.8972  -21.5322    1.5698 H       1  LIG11       0.0271
      7 H           6.4503  -17.7316    1.6703 H       1  LIG11       0.0271
      8 H           7.2970  -19.2953    1.8256 H       1  LIG11       0.0271
      9 C           5.7588  -19.1172   -4.6192 C.3     1  LIG11      -0.0397
     10 C           4.9951  -20.9202    1.7178 C.3     1  LIG11      -0.0209
     11 C           6.3430  -18.7758    2.0011 C.3     1  LIG11      -0.0209
     12 C           2.2246  -14.1853    2.1672 C.3     1  LIG11      -0.0275
     13 C           0.7383  -14.6204    2.3035 C.3     1  LIG11      -0.0491
     14 C          -0.0401  -13.8377    3.3991 C.3     1  LIG11      -0.0530
     15 C           0.0130  -12.2954    3.2155 C.3     1  LIG11      -0.0559
     16 C          -0.9606  -11.5823    4.1926 C.3     1  LIG11      -0.0653
     17 H           6.1393  -18.7854    3.0824 H       1  LIG11       0.0271
     18 H           2.6674  -14.0600    3.1688 H       1  LIG11       0.0313
     19 H           2.2541  -13.2042    1.6682 H       1  LIG11       0.0313
     20 H           0.7006  -15.6994    2.5286 H       1  LIG11       0.0268
     21 H           0.2218  -14.4713    1.3408 H       1  LIG11       0.0268
     22 H           0.3974  -14.0940    4.3797 H       1  LIG11       0.0265
     23 H          -1.0948  -14.1618    3.3906 H       1  LIG11       0.0265
     24 H          -0.2833  -12.0288    2.1879 H       1  LIG11       0.0263
     25 H           1.0397  -11.9308    3.3891 H       1  LIG11       0.0263
     26 H          -0.8873  -10.4895    4.0728 H       1  LIG11       0.0230
     27 H          -0.7150  -11.8362    5.2345 H       1  LIG11       0.0230
     28 H          -2.0016  -11.8842    3.9925 H       1  LIG11       0.0230
     29 H           2.7807  -16.8098    2.8116 H       1  LIG11       0.0657
     30 H           3.6869  -13.8142   -0.1277 H       1  LIG11       0.0657
     31 H           4.4971  -17.4261   -2.9201 H       1  LIG11       0.0626
     32 O           3.9417  -18.7959    1.5290 O.3     1  LIG11      -0.4809
     33 C           3.8418  -17.4838    1.0713 C.ar    1  LIG11       0.1332
     34 C           3.1851  -16.5248    1.8469 C.ar    1  LIG11      -0.0159
     35 C           3.0620  -15.2115    1.3860 C.ar    1  LIG11      -0.0404
     36 C           3.7179  -14.8467    0.2035 C.ar    1  LIG11      -0.0162
     37 C           4.4122  -15.7968   -0.5593 C.ar    1  LIG11       0.1283
     38 C           4.3980  -17.1395   -0.1624 C.ar    1  LIG11       0.0656
     39 C           4.9597  -18.2500   -0.9750 C.ar    1  LIG11      -0.0037
     40 C           4.9992  -18.2165   -2.3736 C.ar    1  LIG11      -0.0505
     41 C           5.6799  -19.2069   -3.0900 C.ar    1  LIG11      -0.0498
     42 C           6.2786  -20.2614   -2.3926 C.ar    1  LIG11      -0.0584
     43 C           6.1623  -20.3404   -1.0018 C.ar    1  LIG11      -0.0540
     44 C           5.4535  -19.3652   -0.2905 C.ar    1  LIG11       0.0031
     45 C           5.1852  -19.4596    1.2262 C.3     1  LIG11       0.1305
     46 O           5.1252  -15.4231   -1.7034 O.3     1  LIG11      -0.5060
     47 H           6.8337  -21.0253   -2.9265 H       1  LIG11       0.0620
     48 H           6.6354  -21.1705   -0.4918 H       1  LIG11       0.0622
     49 H           4.7562  -14.6902   -2.1818 H       1  LIG11       0.2922
@<TRIPOS>BOND
     1     1     9    1
     2     2     9    1
     3     3     9    1
     4     9    41    1
     5    41    42   ar
     6    41    40   ar
     7    47    42    1
     8    31    40    1
     9    42    43   ar
    10    40    39   ar
    11    49    46    1
    12    46    37    1
    13    43    48    1
    14    43    44   ar
    15    39    44   ar
    16    39    38    1
    17    37    38   ar
    18    37    36   ar
    19    44    45    1
    20    38    33   ar
    21    30    36    1
    22    36    35   ar
    23    33    32    1
    24    33    34   ar
    25     4    10    1
    26    45    32    1
    27    45    10    1
    28    45    11    1
    29    21    13    1
    30    35    34   ar
    31    35    12    1
    32     6    10    1
    33    19    12    1
    34     7    11    1
    35    10     5    1
    36     8    11    1
    37    34    29    1
    38    11    17    1
    39    12    13    1
    40    12    18    1
    41    24    15    1
    42    13    20    1
    43    13    14    1
    44    15    25    1
    45    15    14    1
    46    15    16    1
    47    23    14    1
    48    14    22    1
    49    28    16    1
    50    26    16    1
    51    16    27    1
