@<TRIPOS>MOLECULE
M8
 55 57 0 0 0
SMALL
GASTEIGER
Energy = 0

@<TRIPOS>ATOM
      1 C          -3.9248   -7.6152    6.1993 C.2     1  LIG11      -0.0759
      2 C          -4.8564   -7.2705    5.2967 C.2     1  LIG11      -0.0846
      3 C          -4.9787   -7.9040    3.9321 C.3     1  LIG11      -0.0275
      4 C          -4.1928   -9.2397    3.8643 C.3     1  LIG11       0.0090
      5 C          -4.1473   -9.9334    2.4696 C.3     1  LIG11       0.1087
      6 H          -1.9100  -13.2060    2.5325 H       1  LIG11       0.0657
      7 C          -3.8610   -6.9687    7.5659 C.3     1  LIG11      -0.0438
      8 C          -2.3096  -11.2728    3.3206 C.ar    1  LIG11       0.1250
      9 C          -5.5763  -10.2051    1.9218 C.3     1  LIG11      -0.0249
     10 C          -3.3237   -9.1723    1.3896 C.3     1  LIG11      -0.0249
     11 C           0.5883  -13.8102    3.5065 C.3     1  LIG11      -0.0097
     12 C           1.7187  -13.5658    2.4453 C.3     1  LIG11      -0.0441
     13 C           1.2792  -13.2404    0.9828 C.3     1  LIG11      -0.0551
     14 C           2.4252  -12.8632    0.0102 C.3     1  LIG11      -0.0652
     15 H          -3.9956   -5.8815    7.4622 H       1  LIG11       0.0274
     16 C          -1.5090  -12.4034    3.1394 C.ar    1  LIG11      -0.0159
     17 C          -0.2376  -12.5133    3.7184 C.ar    1  LIG11      -0.0382
     18 C           0.2226  -11.4226    4.4690 C.ar    1  LIG11      -0.0576
     19 C          -0.5704  -10.2862    4.6525 C.ar    1  LIG11      -0.0545
     20 C          -1.8630  -10.2167    4.1238 C.ar    1  LIG11      -0.0019
     21 C          -2.7637   -9.0027    4.4099 C.3     1  LIG11      -0.0020
     22 C          -2.8757   -8.6705    5.9225 C.3     1  LIG11      -0.0247
     23 H           3.1114  -13.7173   -0.1074 H       1  LIG11       0.0230
     24 H           1.2021  -11.4226    4.9293 H       1  LIG11       0.0621
     25 H          -2.3156   -8.1333    3.9014 H       1  LIG11       0.0357
     26 H          -1.9079   -8.3046    6.2970 H       1  LIG11       0.0316
     27 H          -5.5787   -6.4890    5.5367 H       1  LIG11       0.0572
     28 H          -3.1391   -9.5798    6.4852 H       1  LIG11       0.0316
     29 H          -4.6047   -7.1817    3.1921 H       1  LIG11       0.0312
     30 H          -6.0463   -8.0876    3.7340 H       1  LIG11       0.0312
     31 H          -4.6957   -9.9501    4.5440 H       1  LIG11       0.0348
     32 H          -2.9031   -7.1472    8.0777 H       1  LIG11       0.0274
     33 H          -4.6676   -7.3660    8.2001 H       1  LIG11       0.0274
     34 H          -0.1630   -9.4510    5.2110 H       1  LIG11       0.0622
     35 H          -5.5402  -10.7055    0.9429 H       1  LIG11       0.0268
     36 H          -6.1374   -9.2636    1.8200 H       1  LIG11       0.0268
     37 H          -6.1275  -10.8564    2.6175 H       1  LIG11       0.0268
     38 H          -2.3064   -9.5802    1.3062 H       1  LIG11       0.0268
     39 H          -3.2433   -8.1123    1.6748 H       1  LIG11       0.0268
     40 H          -3.7969   -9.2067    0.3987 H       1  LIG11       0.0268
     41 C           1.2356  -14.1908    4.8765 C.3     1  LIG11      -0.0558
     42 C          -0.2760  -15.0501    3.0996 C.3     1  LIG11      -0.0558
     43 H           2.3984  -14.4327    2.4241 H       1  LIG11       0.0273
     44 H           2.3300  -12.7055    2.7639 H       1  LIG11       0.0273
     45 H           0.5901  -12.3790    1.0301 H       1  LIG11       0.0263
     46 H           0.7137  -14.0787    0.5456 H       1  LIG11       0.0263
     47 H           3.0122  -12.0214    0.4047 H       1  LIG11       0.0230
     48 H           2.0218  -12.6053   -0.9811 H       1  LIG11       0.0230
     49 O          -3.5557  -11.2250    2.6903 O.3     1  LIG11      -0.4856
     50 H           1.8867  -13.3759    5.2299 H       1  LIG11       0.0238
     51 H           1.8503  -15.1003    4.8168 H       1  LIG11       0.0238
     52 H           0.4589  -14.3685    5.6366 H       1  LIG11       0.0238
     53 H          -0.7782  -14.9276    2.1334 H       1  LIG11       0.0238
     54 H          -1.0447  -15.2594    3.8594 H       1  LIG11       0.0238
     55 H           0.3510  -15.9519    3.0238 H       1  LIG11       0.0238
@<TRIPOS>BOND
     1    48    14    1
     2    23    14    1
     3    14    47    1
     4    14    13    1
     5    40    10    1
     6    46    13    1
     7    35     9    1
     8    13    45    1
     9    13    12    1
    10    38    10    1
    11    10    39    1
    12    10     5    1
    13    36     9    1
    14     9     5    1
    15     9    37    1
    16    53    42    1
    17    43    12    1
    18    12    44    1
    19    12    11    1
    20     5    49    1
    21     5     4    1
    22     6    16    1
    23    49     8    1
    24    55    42    1
    25    42    11    1
    26    42    54    1
    27    16     8   ar
    28    16    17   ar
    29    29     3    1
    30     8    20   ar
    31    11    17    1
    32    11    41    1
    33    17    18   ar
    34    30     3    1
    35     4     3    1
    36     4    21    1
    37     4    31    1
    38    25    21    1
    39     3     2    1
    40    20    21    1
    41    20    19   ar
    42    21    22    1
    43    18    19   ar
    44    18    24    1
    45    19    34    1
    46    51    41    1
    47    41    50    1
    48    41    52    1
    49     2    27    1
    50     2     1    2
    51    22     1    1
    52    22    26    1
    53    22    28    1
    54     1     7    1
    55    15     7    1
    56     7    32    1
    57     7    33    1
