@<TRIPOS>MOLECULE
MOLECULE_02
 85 93 0 0 0
SMALL
GASTEIGER

@<TRIPOS>ATOM
      1 C          -2.2149    2.8223   -6.1163 C.ar    1  LIG111     -0.0547
      2 H          -2.4806    2.9553   -7.1599 H       1  LIG111      0.0622
      3 C          -1.0555    2.1071   -5.7730 C.ar    1  LIG111     -0.0162
      4 H          -0.4374    1.6851   -6.5586 H       1  LIG111      0.0655
      5 C          -0.6734    1.9281   -4.4353 C.ar    1  LIG111      0.1588
      6 C          -1.5084    2.4514   -3.4458 C.ar    1  LIG111      0.1668
      7 C          -2.6699    3.0984   -3.8080 C.ar    1  LIG111      0.0137
      8 C          -3.0300    3.3736   -5.1202 C.ar    1  LIG111     -0.0411
      9 C          -4.2504    4.2687   -5.3721 C.3     1  LIG111     -0.0368
     10 H          -4.9101    3.7600   -6.0855 H       1  LIG111      0.0298
     11 H          -3.8635    5.1644   -5.8837 H       1  LIG111      0.0298
     12 C          -4.9981    4.6938   -4.0548 C.3     1  LIG111     -0.0432
     13 H          -5.4353    5.6902   -4.2353 H       1  LIG111      0.0126
     14 C          -4.0227    4.8688   -2.8400 C.3     1  LIG111      0.0720
     15 C          -2.9323    5.9470   -3.1272 C.3     1  LIG111      0.0031
     16 H          -3.3708    6.9563   -3.1235 H       1  LIG111      0.0341
     17 H          -2.4211    5.7997   -4.0876 H       1  LIG111      0.0341
     18 C          -1.8360    5.8437   -2.0780 C.ar    1  LIG111     -0.0128
     19 C          -1.5199    4.6784   -1.3805 C.ar    1  LIG111      0.0622
     20 C          -2.2259    3.3368   -1.5437 C.3     1  LIG111      0.1523
     21 H          -2.5580    3.0340   -0.5390 H       1  LIG111      0.0809
     22 C          -3.4114    3.4686   -2.5610 C.3     1  LIG111      0.0677
     23 C          -4.5086    2.4144   -2.2620 C.3     1  LIG111     -0.0518
     24 H          -4.9799    2.6654   -1.2981 H       1  LIG111      0.0258
     25 H          -4.0591    1.4116   -2.1682 H       1  LIG111      0.0258
     26 C          -5.5927    2.3967   -3.3705 C.3     1  LIG111     -0.0891
     27 H          -6.4076    1.7346   -3.0295 H       1  LIG111      0.0059
     28 H          -5.1785    1.9461   -4.2862 H       1  LIG111      0.0059
     29 N          -6.0999    3.7657   -3.6529 N.4     1  LIG111      0.3839
     30 C          -7.2942    3.7355   -4.5478 C.3     1  LIG111     -0.0872
     31 H          -8.1019    3.1460   -4.0812 H       1  LIG111      0.0062
     32 H          -7.0681    3.2435   -5.5051 H       1  LIG111      0.0062
     33 C          -7.9031    5.1446   -4.7757 C.3     1  LIG111     -0.0559
     34 H          -8.1587    5.7723   -3.9068 H       1  LIG111      0.0283
     35 C          -8.9110    5.2456   -5.9424 C.3     1  LIG111     -0.0517
     36 H          -9.7507    5.9490   -5.8289 H       1  LIG111      0.0267
     37 H          -9.0933    4.3483   -6.5540 H       1  LIG111      0.0267
     38 C          -7.5115    5.8840   -6.0745 C.3     1  LIG111     -0.0517
     39 H          -7.4628    6.9826   -6.0195 H       1  LIG111      0.0267
     40 H          -6.8126    5.3905   -6.7665 H       1  LIG111      0.0267
     41 O          -1.2678    2.3789   -2.0798 O.3     1  LIG111     -0.4778
     42 N          -0.4964    4.9182   -0.5353 N.ar    1  LIG111     -0.3548
     43 H          -0.0595    4.2319    0.0974 H       1  LIG111      0.1657
     44 C          -0.1461    6.2116   -0.6675 C.ar    1  LIG111      0.0470
     45 C           0.8596    6.9077    0.0016 C.ar    1  LIG111     -0.0375
     46 H           1.4801    6.4202    0.7460 H       1  LIG111      0.0638
     47 C           1.0333    8.2574   -0.3297 C.ar    1  LIG111     -0.0565
     48 H           1.8154    8.8212    0.1687 H       1  LIG111      0.0621
     49 C           0.2229    8.8856   -1.2909 C.ar    1  LIG111     -0.0437
     50 C          -0.7911    8.1705   -1.9445 C.ar    1  LIG111     -0.0490
     51 H          -1.4290    8.6398   -2.6852 H       1  LIG111      0.0627
     52 C          -0.9544    6.8250   -1.6168 C.ar    1  LIG111      0.0036
     53 C           0.4479   10.3642   -1.6415 C.3     1  LIG111      0.0031
     54 H           0.8494   10.8801   -0.7577 H       1  LIG111      0.0344
     55 H          -0.5138   10.8387   -1.8960 H       1  LIG111      0.0344
     56 C           1.4220   10.4606   -2.8464 C.3     1  LIG111      0.0685
     57 H           1.4733   11.4597   -3.2844 H       1  LIG111      0.0658
     58 H           0.9665    9.8560   -3.6506 H       1  LIG111      0.0658
     59 N           2.6996    9.8316   -2.4930 N.pl3   1  LIG111     -0.2783
     60 H           2.7241    8.8129   -2.6700 H       1  LIG111      0.2578
     61 C           3.7654   10.3946   -2.0062 C.cat   1  LIG111      0.3435
     62 N           4.7523    9.5854   -1.7587 N.pl3   1  LIG111     -0.2917
     63 H           5.6489    9.9185   -1.3727 H       1  LIG111      0.2546
     64 N           3.9951   11.6436   -1.7281 N.pl3   1  LIG111     -0.2745
     65 H           4.9122   11.8967   -1.3258 H       1  LIG111      0.2581
     66 C           3.0924   12.7779   -1.9252 C.3     1  LIG111      0.0899
     67 O          -4.7483    5.2386   -1.6532 O.3     1  LIG111     -0.3888
     68 H          -5.1884    6.0786   -1.7293 H       1  LIG111      0.2101
     69 O           0.5034    1.2481   -4.1163 O.3     1  LIG111     -0.5033
     70 H           0.6579    1.2004   -3.1790 H       1  LIG111      0.2923
     71 H          -6.4896    4.1432   -2.7114 H       1  LIG111     -0.0813
     72 H           4.6855    8.5713   -1.9351 H       1  LIG111      0.2546
     73 C           3.6842   14.0459   -1.2819 C.ar    1  LIG111     -0.0140
     74 C           4.6224   14.8143   -1.9817 C.ar    1  LIG111     -0.0542
     75 C           5.1541   15.9758   -1.4145 C.ar    1  LIG111     -0.0430
     76 C           4.7554   16.3745   -0.1362 C.ar    1  LIG111      0.0410
     77 C           3.8286   15.6064    0.5736 C.ar    1  LIG111     -0.0430
     78 C           3.2993   14.4445    0.0041 C.ar    1  LIG111     -0.0542
     79 H           2.9936   12.9950   -2.9995 H       1  LIG111      0.0706
     80 H           2.1068   12.6291   -1.4703 H       1  LIG111      0.0706
     81 H           4.9460   14.5111   -2.9720 H       1  LIG111      0.0622
     82 CL          5.4147   17.8317    0.5739 Cl      1  LIG111     -0.0835
     83 H           5.8757   16.5672   -1.9664 H       1  LIG111      0.0632
     84 H           3.5201   15.9129    1.5683 H       1  LIG111      0.0632
     85 H           2.5872   13.8531    0.5707 H       1  LIG111      0.0622
@<TRIPOS>BOND
     1     2     1    1
     2    40    38    1
     3     4     3    1
     4    37    35    1
     5     1     3   ar
     6     1     8   ar
     7    10     9    1
     8    38    39    1
     9    38    35    1
    10    38    33    1
    11    35    36    1
    12    35    33    1
    13    11     9    1
    14     3     5   ar
    15    32    30    1
    16     9     8    1
    17     9    12    1
    18     8     7   ar
    19    33    30    1
    20    33    34    1
    21    30    31    1
    22    30    29    1
    23     5    69    1
    24     5     6   ar
    25    28    26    1
    26    13    12    1
    27    69    70    1
    28    17    15    1
    29    12    29    1
    30    12    14    1
    31     7     6   ar
    32     7    22    1
    33    29    26    1
    34    29    71    1
    35    58    56    1
    36     6    41    1
    37    26    27    1
    38    26    23    1
    39    57    56    1
    40    15    16    1
    41    15    14    1
    42    15    18    1
    43    79    66    1
    44    81    74    1
    45    56    59    1
    46    56    53    1
    47    14    22    1
    48    14    67    1
    49    51    50    1
    50    60    59    1
    51    22    23    1
    52    22    20    1
    53    59    61    1
    54    23    25    1
    55    23    24    1
    56    41    20    1
    57    18    52   ar
    58    18    19   ar
    59    61    62    2
    60    61    64    1
    61    74    75   ar
    62    74    73   ar
    63    83    75    1
    64    50    52   ar
    65    50    49   ar
    66    72    62    1
    67    66    64    1
    68    66    80    1
    69    66    73    1
    70    55    53    1
    71    62    63    1
    72    68    67    1
    73    64    65    1
    74    53    49    1
    75    53    54    1
    76    52    44   ar
    77    20    19    1
    78    20    21    1
    79    75    76   ar
    80    19    42   ar
    81    49    47   ar
    82    73    78   ar
    83    44    42   ar
    84    44    45   ar
    85    42    43    1
    86    47    45   ar
    87    47    48    1
    88    76    77   ar
    89    76    82    1
    90    45    46    1
    91    78    85    1
    92    78    77   ar
    93    77    84    1
