@<TRIPOS>MOLECULE
MOLECULE_32
 75 83 0 0 0
SMALL
GASTEIGER

@<TRIPOS>ATOM
      1 C          -2.2159    2.8240   -6.1151 C.ar    1  LIG111     -0.0547
      2 C           1.2102   13.4384    0.5924 C.ar    1  LIG111     -0.0303
      3 C          -1.0584    2.1053   -5.7731 C.ar    1  LIG111     -0.0162
      4 C           2.5692   13.3887    0.9221 C.ar    1  LIG111     -0.0571
      5 C          -0.6752    1.9257   -4.4359 C.ar    1  LIG111      0.1588
      6 C          -1.5078    2.4515   -3.4456 C.ar    1  LIG111      0.1668
      7 C          -2.6695    3.0990   -3.8063 C.ar    1  LIG111      0.0137
      8 C          -3.0287    3.3770   -5.1180 C.ar    1  LIG111     -0.0411
      9 C          -4.2462    4.2763   -5.3685 C.3     1  LIG111     -0.0368
     10 C           3.0485   14.0612    2.0500 C.ar    1  LIG111     -0.0615
     11 C           2.1684   14.7870    2.8574 C.ar    1  LIG111     -0.0617
     12 C          -4.9981    4.6946   -4.0517 C.3     1  LIG111     -0.0432
     13 C           0.8096   14.8376    2.5345 C.ar    1  LIG111     -0.0615
     14 C          -4.0263    4.8658   -2.8333 C.3     1  LIG111      0.0720
     15 C          -2.9365    5.9472   -3.1098 C.3     1  LIG111      0.0031
     16 C           0.3323   14.1646    1.4058 C.ar    1  LIG111     -0.0571
     17 H          -2.4820    2.9583   -7.1584 H       1  LIG111      0.0622
     18 C          -1.8563    5.8477   -2.0432 C.ar    1  LIG111     -0.0128
     19 C          -1.5337    4.6755   -1.3599 C.ar    1  LIG111      0.0622
     20 C          -2.2283    3.3305   -1.5415 C.3     1  LIG111      0.1523
     21 H          -0.4427    1.6807   -6.5593 H       1  LIG111      0.0655
     22 C          -3.4128    3.4654   -2.5593 C.3     1  LIG111      0.0677
     23 C          -4.5095    2.4095   -2.2652 C.3     1  LIG111     -0.0518
     24 H           3.2581   12.8239    0.3019 H       1  LIG111      0.0621
     25 H          -4.9043    3.7735   -6.0875 H       1  LIG111      0.0298
     26 C          -5.5914    2.3941   -3.3758 C.3     1  LIG111     -0.0891
     27 H          -3.8553    5.1746   -5.8724 H       1  LIG111      0.0298
     28 H           4.1044   14.0194    2.2993 H       1  LIG111      0.0618
     29 N          -6.0997    3.7630   -3.6570 N.4     1  LIG111      0.3839
     30 C          -7.2896    3.7314   -4.5579 C.3     1  LIG111     -0.0872
     31 H           2.5393   15.3098    3.7335 H       1  LIG111      0.0618
     32 H          -5.4369    5.6908   -4.2298 H       1  LIG111      0.0126
     33 C          -7.8983    5.1396   -4.7926 C.3     1  LIG111     -0.0559
     34 H           0.1242   15.3998    3.1614 H       1  LIG111      0.0618
     35 C          -8.9067    5.2339   -5.9594 C.3     1  LIG111     -0.0517
     36 H          -3.3787    6.9548   -3.1146 H       1  LIG111      0.0341
     37 H          -2.4131    5.7981   -4.0636 H       1  LIG111      0.0341
     38 C          -7.5079    5.8733   -6.0950 C.3     1  LIG111     -0.0517
     39 H          -0.7256   14.2088    1.1677 H       1  LIG111      0.0621
     40 H          -2.5620    3.0166   -0.5407 H       1  LIG111      0.0809
     41 O          -1.2646    2.3800   -2.0803 O.3     1  LIG111     -0.4778
     42 N          -0.5189    4.9129   -0.5042 N.ar    1  LIG111     -0.3548
     43 H          -4.9828    2.6569   -1.3012 H       1  LIG111      0.0258
     44 C          -0.1914    6.2149   -0.6043 C.ar    1  LIG111      0.0471
     45 C           0.7949    6.9129    0.0902 C.ar    1  LIG111     -0.0371
     46 H          -4.0591    1.4069   -2.1738 H       1  LIG111      0.0258
     47 C           0.9372    8.2765   -0.1958 C.ar    1  LIG111     -0.0477
     48 H          -6.4065    1.7305   -3.0381 H       1  LIG111      0.0059
     49 C           0.0956    8.9251   -1.1164 C.ar    1  LIG111      0.0374
     50 C          -0.8674    8.1953   -1.8290 C.ar    1  LIG111     -0.0402
     51 H          -5.1747    1.9461   -4.2915 H       1  LIG111      0.0059
     52 C          -1.0019    6.8363   -1.5463 C.ar    1  LIG111      0.0040
     53 C           0.2056   10.4162   -1.3652 C.2     1  LIG111      0.2444
     54 N           0.5910   11.2610   -0.3796 N.am    1  LIG111     -0.3072
     55 H          -6.4940    4.1378   -2.7164 H       1  LIG111     -0.0813
     56 C           0.7026   12.6916   -0.6507 C.3     1  LIG111      0.0371
     57 H          -8.0994    3.1425   -4.0939 H       1  LIG111      0.0062
     58 H          -7.0590    3.2373   -5.5131 H       1  LIG111      0.0062
     59 H          -8.1550    5.7708   -3.9266 H       1  LIG111      0.0283
     60 H          -9.7478    5.9358   -5.8472 H       1  LIG111      0.0267
     61 H          -9.0884    4.3334   -6.5664 H       1  LIG111      0.0267
     62 H          -7.4638    6.9725   -6.0490 H       1  LIG111      0.0267
     63 H          -6.8121    5.3776   -6.7886 H       1  LIG111      0.0267
     64 H          -0.0767    4.2209    0.1185 H       1  LIG111      0.1657
     65 H           1.4256    6.4154    0.8195 H       1  LIG111      0.0638
     66 H           1.7261    8.8252    0.3062 H       1  LIG111      0.0626
     67 H          -1.4981    8.6656   -2.5753 H       1  LIG111      0.0632
     68 H           0.7703   10.9392    0.5511 H       1  LIG111      0.1493
     69 H          -0.2781   13.0864   -0.9597 H       1  LIG111      0.0512
     70 H           1.4111   12.8613   -1.4772 H       1  LIG111      0.0512
     71 H          -5.1965    6.0694   -1.7205 H       1  LIG111      0.2101
     72 H           0.6550    1.1936   -3.1806 H       1  LIG111      0.2923
     73 O          -0.0761   10.8253   -2.4807 O.2     1  LIG111     -0.2702
     74 O          -4.7565    5.2291   -1.6473 O.3     1  LIG111     -0.3888
     75 O           0.5000    1.2426   -4.1178 O.3     1  LIG111     -0.5033
@<TRIPOS>BOND
     1    17     1    1
     2    63    38    1
     3    61    35    1
     4    21     3    1
     5     1     3   ar
     6     1     8   ar
     7    38    62    1
     8    38    35    1
     9    38    33    1
    10    25     9    1
    11    35    60    1
    12    35    33    1
    13    27     9    1
    14     3     5   ar
    15    58    30    1
    16     9     8    1
    17     9    12    1
    18     8     7   ar
    19    33    30    1
    20    33    59    1
    21    30    57    1
    22    30    29    1
    23     5    75    1
    24     5     6   ar
    25    51    26    1
    26    32    12    1
    27    75    72    1
    28    37    15    1
    29    12    29    1
    30    12    14    1
    31     7     6   ar
    32     7    22    1
    33    29    26    1
    34    29    55    1
    35     6    41    1
    36    26    48    1
    37    26    23    1
    38    36    15    1
    39    15    14    1
    40    15    18    1
    41    14    22    1
    42    14    74    1
    43    67    50    1
    44    22    23    1
    45    22    20    1
    46    73    53    2
    47    23    46    1
    48    23    43    1
    49    41    20    1
    50    18    52   ar
    51    18    19   ar
    52    50    52   ar
    53    50    49   ar
    54    71    74    1
    55    52    44   ar
    56    20    19    1
    57    20    40    1
    58    70    56    1
    59    53    49    1
    60    53    54   am
    61    19    42   ar
    62    49    47   ar
    63    69    56    1
    64    56    54    1
    65    56     2    1
    66    44    42   ar
    67    44    45   ar
    68    42    64    1
    69    54    68    1
    70    47    45   ar
    71    47    66    1
    72    45    65    1
    73    24     4    1
    74     2     4   ar
    75     2    16   ar
    76     4    10   ar
    77    39    16    1
    78    16    13   ar
    79    10    28    1
    80    10    11   ar
    81    13    11   ar
    82    13    34    1
    83    11    31    1
