@<TRIPOS>MOLECULE
MOLECULE_04
 87 95 0 0 0
SMALL
GASTEIGER

@<TRIPOS>ATOM
      1 C          -2.2146    2.8232   -6.1162 C.ar    1  LIG111     -0.0547
      2 H          -2.4797    2.9574   -7.1597 H       1  LIG111      0.0622
      3 C          -1.0557    2.1069   -5.7730 C.ar    1  LIG111     -0.0162
      4 H          -0.4379    1.6847   -6.5588 H       1  LIG111      0.0655
      5 C          -0.6739    1.9271   -4.4355 C.ar    1  LIG111      0.1588
      6 C          -1.5083    2.4512   -3.4458 C.ar    1  LIG111      0.1668
      7 C          -2.6700    3.0981   -3.8077 C.ar    1  LIG111      0.0137
      8 C          -3.0299    3.3738   -5.1198 C.ar    1  LIG111     -0.0411
      9 C          -4.2503    4.2690   -5.3716 C.3     1  LIG111     -0.0368
     10 H          -4.9097    3.7602   -6.0853 H       1  LIG111      0.0298
     11 H          -3.8635    5.1649   -5.8827 H       1  LIG111      0.0298
     12 C          -4.9984    4.6935   -4.0544 C.3     1  LIG111     -0.0432
     13 H          -5.4351    5.6902   -4.2343 H       1  LIG111      0.0126
     14 C          -4.0233    4.8678   -2.8393 C.3     1  LIG111      0.0720
     15 C          -2.9333    5.9463   -3.1261 C.3     1  LIG111      0.0031
     16 H          -3.3725    6.9553   -3.1252 H       1  LIG111      0.0341
     17 H          -2.4193    5.7977   -4.0850 H       1  LIG111      0.0341
     18 C          -1.8407    5.8451   -2.0731 C.ar    1  LIG111     -0.0128
     19 C          -1.5237    4.6793   -1.3766 C.ar    1  LIG111      0.0622
     20 C          -2.2263    3.3362   -1.5434 C.3     1  LIG111      0.1523
     21 H          -2.5586    3.0307   -0.5396 H       1  LIG111      0.0809
     22 C          -3.4118    3.4677   -2.5609 C.3     1  LIG111      0.0677
     23 C          -4.5091    2.4133   -2.2626 C.3     1  LIG111     -0.0518
     24 H          -4.9803    2.6637   -1.2984 H       1  LIG111      0.0258
     25 H          -4.0596    1.4105   -2.1696 H       1  LIG111      0.0258
     26 C          -5.5936    2.3963   -3.3709 C.3     1  LIG111     -0.0891
     27 H          -6.4089    1.7347   -3.0298 H       1  LIG111      0.0059
     28 H          -5.1798    1.9456   -4.2867 H       1  LIG111      0.0059
     29 N          -6.1005    3.7655   -3.6534 N.4     1  LIG111      0.3839
     30 C          -7.2942    3.7367   -4.5492 C.3     1  LIG111     -0.0872
     31 H          -8.1026    3.1474   -4.0834 H       1  LIG111      0.0062
     32 H          -7.0680    3.2452   -5.5066 H       1  LIG111      0.0062
     33 C          -7.9020    5.1466   -4.7769 C.3     1  LIG111     -0.0559
     34 H          -8.1576    5.7740   -3.9078 H       1  LIG111      0.0283
     35 C          -8.9074    5.2501   -5.9455 C.3     1  LIG111     -0.0517
     36 H          -9.7465    5.9544   -5.8330 H       1  LIG111      0.0267
     37 H          -9.0892    4.3542   -6.5592 H       1  LIG111      0.0267
     38 C          -7.5070    5.8874   -6.0740 C.3     1  LIG111     -0.0517
     39 H          -7.4589    6.9860   -6.0190 H       1  LIG111      0.0267
     40 H          -6.8086    5.3943   -6.7668 H       1  LIG111      0.0267
     41 O          -1.2670    2.3796   -2.0800 O.3     1  LIG111     -0.4778
     42 N          -0.5035    4.9208   -0.5279 N.ar    1  LIG111     -0.3548
     43 H          -0.0663    4.2346    0.1047 H       1  LIG111      0.1657
     44 C          -0.1584    6.2161   -0.6550 C.ar    1  LIG111      0.0470
     45 C           0.8406    6.9147    0.0214 C.ar    1  LIG111     -0.0375
     46 H           1.4608    6.4271    0.7661 H       1  LIG111      0.0638
     47 C           1.0078    8.2669   -0.3028 C.ar    1  LIG111     -0.0565
     48 H           1.7826    8.8335    0.2038 H       1  LIG111      0.0621
     49 C           0.2003    8.8945   -1.2669 C.ar    1  LIG111     -0.0437
     50 C          -0.8052    8.1760   -1.9298 C.ar    1  LIG111     -0.0490
     51 H          -1.4397    8.6440   -2.6743 H       1  LIG111      0.0627
     52 C          -0.9647    6.8290   -1.6063 C.ar    1  LIG111      0.0036
     53 C           0.4204   10.3763   -1.6081 C.3     1  LIG111      0.0031
     54 H           0.7917   10.8909   -0.7105 H       1  LIG111      0.0344
     55 H          -0.5375   10.8443   -1.8878 H       1  LIG111      0.0344
     56 C           1.4269   10.4869   -2.7849 C.3     1  LIG111      0.0685
     57 H           1.4864   11.4888   -3.2162 H       1  LIG111      0.0658
     58 H           0.9975    9.8834   -3.6043 H       1  LIG111      0.0658
     59 N           2.6978    9.8652   -2.3979 N.pl3   1  LIG111     -0.2783
     60 H           2.7380    8.8488   -2.5860 H       1  LIG111      0.2578
     61 C           3.7625   10.4443   -1.8576 C.cat   1  LIG111      0.3435
     62 N           4.7649    9.6264   -1.5786 N.pl3   1  LIG111     -0.2917
     63 H           5.6446    9.9632   -1.1581 H       1  LIG111      0.2546
     64 N           3.9754   11.7178   -1.5535 N.pl3   1  LIG111     -0.2745
     65 H           4.8759   11.9742   -1.1170 H       1  LIG111      0.2581
     66 C           3.0720   12.8478   -1.7726 C.3     1  LIG111      0.0899
     67 O          -4.7491    5.2370   -1.6524 O.3     1  LIG111     -0.3888
     68 H          -5.1890    6.0771   -1.7279 H       1  LIG111      0.2101
     69 O           0.5021    1.2457   -4.1165 O.3     1  LIG111     -0.5033
     70 H           0.6558    1.1959   -3.1792 H       1  LIG111      0.2923
     71 H          -6.4904    4.1426   -2.7118 H       1  LIG111     -0.0813
     72 H           4.7133    8.6135   -1.7667 H       1  LIG111      0.2546
     73 C           3.6228   14.1047   -1.0734 C.ar    1  LIG111     -0.0140
     74 C           4.4525   14.9985   -1.7615 C.ar    1  LIG111     -0.0538
     75 C           4.9416   16.1440   -1.1266 C.ar    1  LIG111     -0.0407
     76 C           4.6117   16.4018    0.2077 C.ar    1  LIG111      0.0246
     77 C           3.7916   15.5085    0.9013 C.ar    1  LIG111     -0.0407
     78 C           3.3027   14.3639    0.2647 C.ar    1  LIG111     -0.0538
     79 H           3.0140   13.0753   -2.8478 H       1  LIG111      0.0706
     80 H           2.0694   12.6920   -1.3589 H       1  LIG111      0.0706
     81 H           4.7250   14.8076   -2.7945 H       1  LIG111      0.0622
     82 N           5.1019   17.5573    0.8593 N.pl3   1  LIG111     -0.3580
     83 H           5.5790   16.8343   -1.6699 H       1  LIG111      0.0636
     84 H           3.5358   15.7063    1.9372 H       1  LIG111      0.0636
     85 H           2.6729   13.6749    0.8185 H       1  LIG111      0.0622
     86 H           4.7754   18.4463    0.3385 H       1  LIG111      0.1423
     87 H           6.1816   17.5316    0.8998 H       1  LIG111      0.1423
@<TRIPOS>BOND
     1     2     1    1
     2    40    38    1
     3    37    35    1
     4     4     3    1
     5     1     3   ar
     6     1     8   ar
     7    10     9    1
     8    38    39    1
     9    38    35    1
    10    38    33    1
    11    35    36    1
    12    35    33    1
    13    11     9    1
    14     3     5   ar
    15    32    30    1
    16     9     8    1
    17     9    12    1
    18     8     7   ar
    19    33    30    1
    20    33    34    1
    21    30    31    1
    22    30    29    1
    23     5    69    1
    24     5     6   ar
    25    28    26    1
    26    13    12    1
    27    69    70    1
    28    17    15    1
    29    12    29    1
    30    12    14    1
    31     7     6   ar
    32     7    22    1
    33    29    26    1
    34    29    71    1
    35    58    56    1
    36     6    41    1
    37    26    27    1
    38    26    23    1
    39    57    56    1
    40    15    16    1
    41    15    14    1
    42    15    18    1
    43    79    66    1
    44    14    22    1
    45    14    67    1
    46    81    74    1
    47    56    59    1
    48    56    53    1
    49    51    50    1
    50    60    59    1
    51    22    23    1
    52    22    20    1
    53    59    61    1
    54    23    25    1
    55    23    24    1
    56    41    20    1
    57    18    52   ar
    58    18    19   ar
    59    50    52   ar
    60    50    49   ar
    61    55    53    1
    62    61    62    2
    63    61    64    1
    64    66    64    1
    65    66    80    1
    66    66    73    1
    67    72    62    1
    68    74    75   ar
    69    74    73   ar
    70    68    67    1
    71    83    75    1
    72    53    49    1
    73    53    54    1
    74    52    44   ar
    75    62    63    1
    76    64    65    1
    77    20    19    1
    78    20    21    1
    79    19    42   ar
    80    49    47   ar
    81    75    76   ar
    82    73    78   ar
    83    44    42   ar
    84    44    45   ar
    85    42    43    1
    86    47    45   ar
    87    47    48    1
    88    45    46    1
    89    76    82    1
    90    76    77   ar
    91    78    85    1
    92    78    77   ar
    93    86    82    1
    94    82    87    1
    95    77    84    1
