@<TRIPOS>MOLECULE
MOLECULE_05
 79 87 0 0 0
SMALL
GASTEIGER

@<TRIPOS>ATOM
      1 C          -2.2156    2.8238   -6.1152 C.ar    1  LIG111     -0.0547
      2 H           0.9095   16.7254   -4.6419 H       1  LIG111      0.0618
      3 C          -1.0574    2.1061   -5.7732 C.ar    1  LIG111     -0.0162
      4 H          -2.4815    2.9582   -7.1586 H       1  LIG111      0.0622
      5 C          -0.6742    1.9268   -4.4360 C.ar    1  LIG111      0.1588
      6 C          -1.5076    2.4511   -3.4456 C.ar    1  LIG111      0.1668
      7 C          -2.6703    3.0969   -3.8064 C.ar    1  LIG111      0.0137
      8 C          -3.0291    3.3756   -5.1181 C.ar    1  LIG111     -0.0411
      9 C          -4.2464    4.2754   -5.3684 C.3     1  LIG111     -0.0368
     10 H          -0.4412    1.6822   -6.5594 H       1  LIG111      0.0655
     11 C          -4.9982    4.6941   -4.0517 C.3     1  LIG111     -0.0432
     12 H          -4.9051    3.7740   -6.0880 H       1  LIG111      0.0298
     13 C          -4.0265    4.8624   -2.8333 C.3     1  LIG111      0.0720
     14 C          -2.9354    5.9420   -3.1106 C.3     1  LIG111      0.0031
     15 H          -3.8543    5.1736   -5.8713 H       1  LIG111      0.0298
     16 H          -5.4344    5.6916   -4.2286 H       1  LIG111      0.0126
     17 C          -1.8616    5.8445   -2.0384 C.ar    1  LIG111     -0.0127
     18 C          -1.5420    4.6741   -1.3507 C.ar    1  LIG111      0.0622
     19 C          -2.2310    3.3267   -1.5399 C.3     1  LIG111      0.1523
     20 H          -3.3769    6.9499   -3.1193 H       1  LIG111      0.0341
     21 C          -3.4146    3.4614   -2.5595 C.3     1  LIG111      0.0677
     22 C          -4.5129    2.4060   -2.2685 C.3     1  LIG111     -0.0518
     23 H          -2.4080    5.7902   -4.0618 H       1  LIG111      0.0341
     24 H          -2.5658    3.0071   -0.5413 H       1  LIG111      0.0809
     25 C          -5.5955    2.3946   -3.3789 C.3     1  LIG111     -0.0891
     26 H          -4.9859    2.6519   -1.3040 H       1  LIG111      0.0258
     27 H          -4.0638    1.4026   -2.1793 H       1  LIG111      0.0258
     28 N          -6.1015    3.7652   -3.6566 N.4     1  LIG111      0.3839
     29 C          -7.2934    3.7411   -4.5549 C.3     1  LIG111     -0.0872
     30 H          -6.4118    1.7320   -3.0420 H       1  LIG111      0.0059
     31 H          -5.1805    1.9477   -4.2959 H       1  LIG111      0.0059
     32 C          -7.9016    5.1518   -4.7764 C.3     1  LIG111     -0.0559
     33 H          -6.4932    4.1382   -2.7142 H       1  LIG111     -0.0813
     34 C          -8.9069    5.2590   -5.9447 C.3     1  LIG111     -0.0517
     35 H          -8.1024    3.1491   -4.0937 H       1  LIG111      0.0062
     36 H          -7.0648    3.2547   -5.5144 H       1  LIG111      0.0062
     37 C          -7.5077    5.8992   -6.0700 C.3     1  LIG111     -0.0517
     38 H          -8.1589    5.7747   -3.9046 H       1  LIG111      0.0283
     39 H          -9.7476    5.9609   -5.8283 H       1  LIG111      0.0267
     40 O          -1.2642    2.3801   -2.0803 O.3     1  LIG111     -0.4778
     41 N          -0.5372    4.9170   -0.4842 N.ar    1  LIG111     -0.3548
     42 H          -9.0872    4.3658   -6.5628 H       1  LIG111      0.0267
     43 C          -0.2130    6.2203   -0.5819 C.ar    1  LIG111      0.0472
     44 C           0.7573    6.9244    0.1304 C.ar    1  LIG111     -0.0345
     45 H          -7.4620    6.9977   -6.0107 H       1  LIG111      0.0267
     46 C           0.8954    8.2886   -0.1549 C.ar    1  LIG111     -0.0212
     47 H          -6.8077    5.4103   -6.7644 H       1  LIG111      0.0267
     48 C           0.1000    8.9135   -1.1295 C.ar    1  LIG111      0.1005
     49 C          -0.8699    8.1903   -1.8361 C.ar    1  LIG111     -0.0138
     50 H          -0.1010    4.2278    0.1459 H       1  LIG111      0.1657
     51 C          -1.0113    6.8350   -1.5394 C.ar    1  LIG111      0.0066
     52 N           0.2551   10.2345   -1.3845 N.pl3   1  LIG111     -0.2463
     53 H           1.3758    6.4330    0.8739 H       1  LIG111      0.0639
     54 C           1.3369   10.7406   -1.9424 C.cat   1  LIG111      0.3483
     55 N           1.4750   12.0385   -2.1371 N.pl3   1  LIG111     -0.2742
     56 H           1.6305    8.8736    0.3888 H       1  LIG111      0.0653
     57 C           0.4711   13.0342   -1.7553 C.3     1  LIG111      0.0899
     58 H          -1.4883    8.6671   -2.5884 H       1  LIG111      0.0659
     59 H          -0.5324   10.8383   -1.1182 H       1  LIG111      0.2647
     60 C           0.9607   14.4516   -2.0951 C.ar    1  LIG111     -0.0141
     61 C           1.6742   15.2000   -1.1523 C.ar    1  LIG111     -0.0556
     62 H           2.3374   12.3947   -2.5805 H       1  LIG111      0.2581
     63 C           2.1011   16.4952   -1.4582 C.ar    1  LIG111     -0.0614
     64 H           0.2744   12.9867   -0.6723 H       1  LIG111      0.0706
     65 C           1.8249   17.0483   -2.7117 C.ar    1  LIG111     -0.0617
     66 C           1.1230   16.3022   -3.6671 C.ar    1  LIG111     -0.0614
     67 H          -0.4709   12.8558   -2.2985 H       1  LIG111      0.0706
     68 C           0.7000   15.0073   -3.3529 C.ar    1  LIG111     -0.0556
     69 H           1.9018   14.7789   -0.1782 H       1  LIG111      0.0621
     70 H           2.6488   17.0731   -0.7200 H       1  LIG111      0.0618
     71 H           2.1598   18.0567   -2.9334 H       1  LIG111      0.0618
     72 N           2.3198    9.9569   -2.3334 N.pl3   1  LIG111     -0.2914
     73 H           0.1643   14.4324   -4.1010 H       1  LIG111      0.0621
     74 O          -4.7559    5.2265   -1.6470 O.3     1  LIG111     -0.3888
     75 H           2.2685    8.9338   -2.2399 H       1  LIG111      0.2546
     76 O           0.5020    1.2453   -4.1180 O.3     1  LIG111     -0.5033
     77 H           3.1718   10.3448   -2.7658 H       1  LIG111      0.2546
     78 H          -5.1944    6.0676   -1.7198 H       1  LIG111      0.2101
     79 H           0.6563    1.1951   -3.1808 H       1  LIG111      0.2923
@<TRIPOS>BOND
     1     4     1    1
     2    47    37    1
     3    42    34    1
     4    10     3    1
     5     1     3   ar
     6     1     8   ar
     7    12     9    1
     8    37    45    1
     9    37    34    1
    10    37    32    1
    11    34    39    1
    12    34    32    1
    13    15     9    1
    14     3     5   ar
    15    36    29    1
    16     9     8    1
    17     9    11    1
    18     8     7   ar
    19    32    29    1
    20    32    38    1
    21     2    66    1
    22    29    35    1
    23    29    28    1
    24     5    76    1
    25     5     6   ar
    26    31    25    1
    27    16    11    1
    28    76    79    1
    29    73    68    1
    30    23    14    1
    31    11    28    1
    32    11    13    1
    33     7     6   ar
    34     7    21    1
    35    66    68   ar
    36    66    65   ar
    37    28    25    1
    38    28    33    1
    39     6    40    1
    40    25    30    1
    41    25    22    1
    42    68    60   ar
    43    20    14    1
    44    14    13    1
    45    14    17    1
    46    71    65    1
    47    13    21    1
    48    13    74    1
    49    77    72    1
    50    65    63   ar
    51    58    49    1
    52    62    55    1
    53    21    22    1
    54    21    19    1
    55    72    75    1
    56    72    54    2
    57    67    57    1
    58    22    27    1
    59    22    26    1
    60    55    54    1
    61    55    57    1
    62    60    57    1
    63    60    61   ar
    64    40    19    1
    65    17    51   ar
    66    17    18   ar
    67    54    52    1
    68    49    51   ar
    69    49    48   ar
    70    57    64    1
    71    78    74    1
    72    19    18    1
    73    19    24    1
    74    51    43   ar
    75    63    61   ar
    76    63    70    1
    77    52    48    1
    78    52    59    1
    79    18    41   ar
    80    61    69    1
    81    48    46   ar
    82    43    41   ar
    83    43    44   ar
    84    41    50    1
    85    46    44   ar
    86    46    56    1
    87    44    53    1
