@<TRIPOS>MOLECULE
MOLECULE_46
 78 86 0 0 0
SMALL
GASTEIGER

@<TRIPOS>ATOM
      1 C          -2.2145    2.8214   -6.1168 C.ar    1  LIG111     -0.0547
      2 C           1.0591    6.9335   -0.0037 C.3     1  LIG111     -0.0236
      3 C          -1.0560    2.1050   -5.7722 C.ar    1  LIG111     -0.0162
      4 H          -2.4799    2.9527   -7.1607 H       1  LIG111      0.0622
      5 C          -0.6739    1.9275   -4.4343 C.ar    1  LIG111      0.1588
      6 C          -1.5091    2.4524   -3.4462 C.ar    1  LIG111      0.1668
      7 C          -2.6673    3.1042   -3.8100 C.ar    1  LIG111      0.0137
      8 C          -3.0292    3.3759   -5.1220 C.ar    1  LIG111     -0.0411
      9 C          -4.2519    4.2686   -5.3725 C.3     1  LIG111     -0.0368
     10 H           1.1508    7.9862   -0.3074 H       1  LIG111      0.0292
     11 H           2.0029    6.4225   -0.2441 H       1  LIG111      0.0292
     12 C          -4.9999    4.6937   -4.0549 C.3     1  LIG111     -0.0432
     13 H           0.8807    6.8906    1.0809 H       1  LIG111      0.0292
     14 C          -4.0253    4.8761   -2.8401 C.3     1  LIG111      0.0720
     15 C          -2.9426    5.9595   -3.1283 C.3     1  LIG111      0.0031
     16 H          -0.4385    1.6806   -6.5570 H       1  LIG111      0.0655
     17 H          -4.9112    3.7559   -6.0834 H       1  LIG111      0.0298
     18 C          -1.8350    5.8597   -2.0907 C.ar    1  LIG111     -0.0124
     19 C          -1.4854    4.6957   -1.4140 C.ar    1  LIG111      0.0649
     20 C          -2.2116    3.3583   -1.5538 C.3     1  LIG111      0.1525
     21 H          -3.8690    5.1641   -5.8873 H       1  LIG111      0.0298
     22 C          -3.4038    3.4812   -2.5632 C.3     1  LIG111      0.0677
     23 C          -4.4962    2.4241   -2.2546 C.3     1  LIG111     -0.0518
     24 H          -5.4416    5.6878   -4.2374 H       1  LIG111      0.0126
     25 H          -3.3825    6.9684   -3.1211 H       1  LIG111      0.0341
     26 C          -5.5836    2.3966   -3.3599 C.3     1  LIG111     -0.0891
     27 H          -2.4392    5.8130   -4.0928 H       1  LIG111      0.0341
     28 H          -2.5686    3.0702   -0.5552 H       1  LIG111      0.0809
     29 N          -6.0973    3.7618   -3.6496 N.4     1  LIG111      0.3839
     30 C          -7.2903    3.7205   -4.5460 C.3     1  LIG111     -0.0872
     31 H          -4.9665    2.6774   -1.2906 H       1  LIG111      0.0258
     32 H          -4.0427    1.4235   -2.1568 H       1  LIG111      0.0258
     33 C          -7.9018    5.1257   -4.7912 C.3     1  LIG111     -0.0559
     34 H          -6.3952    1.7334   -3.0132 H       1  LIG111      0.0059
     35 C          -8.9101    5.2102   -5.9589 C.3     1  LIG111     -0.0517
     36 H          -5.1698    1.9426   -4.2741 H       1  LIG111      0.0059
     37 H          -6.4895    4.1421   -2.7104 H       1  LIG111     -0.0813
     38 C          -7.5121    5.8502   -6.0989 C.3     1  LIG111     -0.0517
     39 H          -8.0974    3.1343   -4.0740 H       1  LIG111      0.0062
     40 H          -7.0622    3.2184   -5.4976 H       1  LIG111      0.0062
     41 O          -1.2726    2.3772   -2.0802 O.3     1  LIG111     -0.4778
     42 N          -0.4205    4.9414   -0.6208 N.ar    1  LIG111     -0.3397
     43 C           0.2622    3.9471    0.2025 C.3     1  LIG111      0.0484
     44 H          -8.1583    5.7635   -3.9300 H       1  LIG111      0.0283
     45 H          -9.7515    5.9129   -5.8536 H       1  LIG111      0.0267
     46 C          -0.7088    3.3848    1.2454 C.ar    1  LIG111     -0.0278
     47 C          -0.7984    2.0075    1.4781 C.ar    1  LIG111     -0.0569
     48 H          -9.0904    4.3054   -6.5598 H       1  LIG111      0.0267
     49 C          -1.7172    1.5092    2.4062 C.ar    1  LIG111     -0.0614
     50 H          -7.4693    6.9498   -6.0610 H       1  LIG111      0.0267
     51 C          -2.5449    2.3866    3.1122 C.ar    1  LIG111     -0.0617
     52 H          -6.8163    5.3504   -6.7894 H       1  LIG111      0.0267
     53 C          -2.4463    3.7637    2.8949 C.ar    1  LIG111     -0.0614
     54 H           1.1182    4.3625    0.7523 H       1  LIG111      0.0541
     55 C          -1.5259    4.2610    1.9679 C.ar    1  LIG111     -0.0569
     56 H           0.6425    3.1578   -0.4634 H       1  LIG111      0.0541
     57 C          -0.0967    6.2494   -0.7377 C.ar    1  LIG111      0.0243
     58 H          -0.1576    1.3176    0.9386 H       1  LIG111      0.0621
     59 C          -0.9769    6.8618   -1.6338 C.ar    1  LIG111      0.0062
     60 C          -1.0120    8.2873   -2.0348 C.ar    1  LIG111     -0.0159
     61 C          -1.2048    9.2809   -1.0702 C.ar    1  LIG111     -0.0540
     62 H          -1.7885    0.4397    2.5786 H       1  LIG111      0.0618
     63 C          -1.2374   10.6261   -1.4486 C.ar    1  LIG111     -0.0612
     64 H          -3.2627    1.9991    3.8286 H       1  LIG111      0.0618
     65 C          -1.0860   10.9778   -2.7931 C.ar    1  LIG111     -0.0617
     66 H          -3.0848    4.4471    3.4461 H       1  LIG111      0.0618
     67 C          -0.8980    9.9843   -3.7584 C.ar    1  LIG111     -0.0612
     68 H          -1.4496    5.3320    1.8096 H       1  LIG111      0.0621
     69 C          -0.8572    8.6395   -3.3789 C.ar    1  LIG111     -0.0540
     70 H          -1.3312    9.0086   -0.0269 H       1  LIG111      0.0624
     71 O          -4.7502    5.2425   -1.6518 O.3     1  LIG111     -0.3888
     72 H          -1.3809   11.3976   -0.6984 H       1  LIG111      0.0618
     73 O           0.5029    1.2483   -4.1131 O.3     1  LIG111     -0.5033
     74 H          -1.1144   12.0224   -3.0876 H       1  LIG111      0.0618
     75 H          -0.7833   10.2569   -4.8030 H       1  LIG111      0.0618
     76 H          -0.7037    7.8702   -4.1289 H       1  LIG111      0.0624
     77 H          -5.1954    6.0797   -1.7273 H       1  LIG111      0.2101
     78 H           0.6689    1.2235   -3.1768 H       1  LIG111      0.2923
@<TRIPOS>BOND
     1     4     1    1
     2    52    38    1
     3    48    35    1
     4    16     3    1
     5     1     3   ar
     6     1     8   ar
     7    38    50    1
     8    38    35    1
     9    38    33    1
    10    17     9    1
    11    35    45    1
    12    35    33    1
    13    21     9    1
    14     3     5   ar
    15    40    30    1
    16     9     8    1
    17     9    12    1
    18     8     7   ar
    19    75    67    1
    20    33    30    1
    21    33    44    1
    22    30    39    1
    23    30    29    1
    24     5    73    1
    25     5     6   ar
    26    36    26    1
    27    24    12    1
    28    76    69    1
    29    73    78    1
    30    27    15    1
    31    12    29    1
    32    12    14    1
    33     7     6   ar
    34     7    22    1
    35    67    69   ar
    36    67    65   ar
    37    29    26    1
    38    29    37    1
    39     6    41    1
    40    69    60   ar
    41    26    34    1
    42    26    23    1
    43    15    25    1
    44    15    14    1
    45    15    18    1
    46    74    65    1
    47    14    22    1
    48    14    71    1
    49    65    63   ar
    50    22    23    1
    51    22    20    1
    52    23    32    1
    53    23    31    1
    54    18    59   ar
    55    18    19   ar
    56    41    20    1
    57    60    59    1
    58    60    61   ar
    59    77    71    1
    60    59    57   ar
    61    20    19    1
    62    20    28    1
    63    63    61   ar
    64    63    72    1
    65    19    42   ar
    66    61    70    1
    67    57    42   ar
    68    57     2    1
    69    42    43    1
    70    56    43    1
    71    10     2    1
    72    11     2    1
    73     2    13    1
    74    43    54    1
    75    43    46    1
    76    58    47    1
    77    46    47   ar
    78    46    55   ar
    79    47    49   ar
    80    68    55    1
    81    55    53   ar
    82    49    62    1
    83    49    51   ar
    84    53    51   ar
    85    53    66    1
    86    51    64    1
