@<TRIPOS>MOLECULE
MOLECULE_26
 82 89 0 0 0
SMALL
GASTEIGER

@<TRIPOS>ATOM
      1 C          -2.2141    2.8262   -6.1154 C.ar    1  LIG111     -0.0547
      2 C           2.0963   15.5990   -0.8533 C.3     1  LIG111     -0.0545
      3 C          -1.0585    2.1044   -5.7729 C.ar    1  LIG111     -0.0162
      4 C           2.4776   16.8950   -0.0914 C.3     1  LIG111     -0.0652
      5 C          -0.6765    1.9235   -4.4356 C.ar    1  LIG111      0.1588
      6 C          -1.5082    2.4513   -3.4457 C.ar    1  LIG111      0.1668
      7 C          -2.6694    3.0996   -3.8067 C.ar    1  LIG111      0.0137
      8 C          -3.0286    3.3772   -5.1186 C.ar    1  LIG111     -0.0411
      9 C          -4.2478    4.2738   -5.3696 C.3     1  LIG111     -0.0368
     10 H          -2.4773    2.9645   -7.1588 H       1  LIG111      0.0622
     11 H           2.1395   15.7924   -1.9381 H       1  LIG111      0.0263
     12 C          -4.9992    4.6933   -4.0528 C.3     1  LIG111     -0.0432
     13 H           1.0605   15.3242   -0.5929 H       1  LIG111      0.0263
     14 C          -4.0272    4.8666   -2.8350 C.3     1  LIG111      0.0720
     15 C          -2.9399    5.9493   -3.1144 C.3     1  LIG111      0.0031
     16 H          -0.4435    1.6784   -6.5589 H       1  LIG111      0.0655
     17 H           1.7848   17.7088   -0.3577 H       1  LIG111      0.0230
     18 C          -1.8561    5.8512   -2.0519 C.ar    1  LIG111     -0.0128
     19 C          -1.5291    4.6805   -1.3683 C.ar    1  LIG111      0.0622
     20 C          -2.2258    3.3353   -1.5432 C.3     1  LIG111      0.1523
     21 H           3.5010   17.2067   -0.3516 H       1  LIG111      0.0230
     22 C          -3.4120    3.4673   -2.5597 C.3     1  LIG111      0.0677
     23 C          -4.5082    2.4111   -2.2635 C.3     1  LIG111     -0.0518
     24 H           2.4232   16.7311    0.9962 H       1  LIG111      0.0230
     25 H          -4.9059    3.7680   -6.0865 H       1  LIG111      0.0298
     26 C          -5.5909    2.3935   -3.3735 C.3     1  LIG111     -0.0891
     27 H          -3.8591    5.1715   -5.8761 H       1  LIG111      0.0298
     28 H          -5.4381    5.6894   -4.2317 H       1  LIG111      0.0126
     29 N          -6.1002    3.7619   -3.6560 N.4     1  LIG111      0.3839
     30 C          -7.2914    3.7302   -4.5551 C.3     1  LIG111     -0.0872
     31 H          -3.3832    6.9565   -3.1174 H       1  LIG111      0.0341
     32 H          -2.4191    5.8014   -4.0696 H       1  LIG111      0.0341
     33 C          -7.8992    5.1388   -4.7900 C.3     1  LIG111     -0.0559
     34 H          -2.5581    3.0253   -0.5408 H       1  LIG111      0.0809
     35 C          -8.9050    5.2354   -5.9589 C.3     1  LIG111     -0.0517
     36 H          -4.9813    2.6599   -1.2999 H       1  LIG111      0.0258
     37 H          -4.0574    1.4089   -2.1705 H       1  LIG111      0.0258
     38 C          -7.5050    5.8728   -6.0912 C.3     1  LIG111     -0.0517
     39 H          -6.4056    1.7302   -3.0345 H       1  LIG111      0.0059
     40 H          -5.1748    1.9445   -4.2891 H       1  LIG111      0.0059
     41 O          -1.2644    2.3815   -2.0804 O.3     1  LIG111     -0.4778
     42 N          -0.5084    4.9203   -0.5198 N.ar    1  LIG111     -0.3548
     43 H          -6.4934    4.1374   -2.7152 H       1  LIG111     -0.0813
     44 C          -0.1836    6.2230   -0.6223 C.ar    1  LIG111      0.0470
     45 C           0.8040    6.9238    0.0683 C.ar    1  LIG111     -0.0375
     46 H          -8.1008    3.1422   -4.0895 H       1  LIG111      0.0062
     47 C           0.9354    8.2893   -0.2135 C.ar    1  LIG111     -0.0565
     48 H          -7.0621    3.2354   -5.5101 H       1  LIG111      0.0062
     49 C           0.1027    8.9275   -1.1486 C.ar    1  LIG111     -0.0452
     50 C          -0.8698    8.1996   -1.8494 C.ar    1  LIG111     -0.0491
     51 H          -8.1557    5.7704   -3.9242 H       1  LIG111      0.0283
     52 C          -1.0006    6.8415   -1.5609 C.ar    1  LIG111      0.0036
     53 C           0.2532   10.4336   -1.4088 C.3     1  LIG111     -0.0120
     54 H          -9.7445    5.9398   -5.8503 H       1  LIG111      0.0267
     55 H          -9.0865    4.3358   -6.5673 H       1  LIG111      0.0267
     56 C           1.2648   10.6675   -2.5614 C.3     1  LIG111      0.0170
     57 H          -7.4582    6.9718   -6.0431 H       1  LIG111      0.0267
     58 H          -6.8079    5.3764   -6.7830 H       1  LIG111      0.0267
     59 N           2.5752   10.1368   -2.1814 N.am    1  LIG111     -0.2991
     60 H          -0.0619    4.2296    0.1013 H       1  LIG111      0.1657
     61 C           3.5083   10.7371   -1.3828 C.2     1  LIG111      0.2996
     62 O           4.4449   10.0203   -1.0582 O.2     1  LIG111     -0.2529
     63 C           2.6755   13.1209   -1.2472 C.3     1  LIG111      0.0130
     64 N           3.5605   12.0114   -0.8909 N.am    1  LIG111     -0.2994
     65 H           1.4414    6.4282    0.7929 H       1  LIG111      0.0638
     66 C           3.0537   14.4288   -0.4945 C.3     1  LIG111     -0.0376
     67 O          -4.7571    5.2300   -1.6488 O.3     1  LIG111     -0.3888
     68 H           1.6996    8.8587    0.3057 H       1  LIG111      0.0621
     69 O           0.4966    1.2371   -4.1169 O.3     1  LIG111     -0.5033
     70 H          -1.5033    8.6700   -2.5933 H       1  LIG111      0.0627
     71 H           0.5870   10.9145   -0.4784 H       1  LIG111      0.0328
     72 H          -0.7240   10.8678   -1.6760 H       1  LIG111      0.0328
     73 H           1.2897   11.7043   -2.9095 H       1  LIG111      0.0466
     74 H           0.8864   10.0974   -3.4281 H       1  LIG111      0.0466
     75 H           2.7508    9.1883   -2.4656 H       1  LIG111      0.1502
     76 H           2.7652   13.3316   -2.3246 H       1  LIG111      0.0462
     77 H           1.6339   12.9079   -0.9767 H       1  LIG111      0.0462
     78 H           4.3204   12.2363   -0.2743 H       1  LIG111      0.1502
     79 H           4.0875   14.7121   -0.7536 H       1  LIG111      0.0280
     80 H           3.0079   14.2446    0.5919 H       1  LIG111      0.0280
     81 H          -5.1993    6.0691   -1.7227 H       1  LIG111      0.2101
     82 H           0.6495    1.1852   -3.1796 H       1  LIG111      0.2923
@<TRIPOS>BOND
     1    10     1    1
     2    58    38    1
     3    55    35    1
     4    16     3    1
     5     1     3   ar
     6     1     8   ar
     7    38    57    1
     8    38    35    1
     9    38    33    1
    10    25     9    1
    11    35    54    1
    12    35    33    1
    13    27     9    1
    14     3     5   ar
    15    48    30    1
    16     9     8    1
    17     9    12    1
    18     8     7   ar
    19    33    30    1
    20    33    51    1
    21    30    46    1
    22    30    29    1
    23     5    69    1
    24     5     6   ar
    25    40    26    1
    26    28    12    1
    27    69    82    1
    28    32    15    1
    29    12    29    1
    30    12    14    1
    31     7     6   ar
    32     7    22    1
    33    29    26    1
    34    29    43    1
    35     6    41    1
    36    74    56    1
    37    26    39    1
    38    26    23    1
    39    31    15    1
    40    15    14    1
    41    15    18    1
    42    73    56    1
    43    14    22    1
    44    14    67    1
    45    70    50    1
    46    56    59    1
    47    56    53    1
    48    22    23    1
    49    22    20    1
    50    75    59    1
    51    76    63    1
    52    23    37    1
    53    23    36    1
    54    59    61   am
    55    41    20    1
    56    18    52   ar
    57    18    19   ar
    58    11     2    1
    59    50    52   ar
    60    50    49   ar
    61    81    67    1
    62    72    53    1
    63    52    44   ar
    64    20    19    1
    65    20    34    1
    66    53    49    1
    67    53    71    1
    68    61    62    2
    69    61    64   am
    70    19    42   ar
    71    63    77    1
    72    63    64    1
    73    63    66    1
    74    49    47   ar
    75    64    78    1
    76     2    13    1
    77     2    66    1
    78     2     4    1
    79    79    66    1
    80    44    42   ar
    81    44    45   ar
    82    42    60    1
    83    66    80    1
    84    17     4    1
    85    21     4    1
    86    47    45   ar
    87    47    68    1
    88     4    24    1
    89    45    65    1
