@<TRIPOS>MOLECULE
MOLECULE_01
 85 93 0 0 0
SMALL
GASTEIGER

@<TRIPOS>ATOM
      1 C          -2.2151    2.8212   -6.1166 C.ar    1  LIG111     -0.0547
      2 H          -2.4812    2.9530   -7.1601 H       1  LIG111      0.0622
      3 C          -1.0546    2.1079   -5.7730 C.ar    1  LIG111     -0.0162
      4 H          -0.4356    1.6866   -6.5587 H       1  LIG111      0.0655
      5 C          -0.6721    1.9300   -4.4354 C.ar    1  LIG111      0.1588
      6 C          -1.5084    2.4514   -3.4458 C.ar    1  LIG111      0.1668
      7 C          -2.6703    3.0974   -3.8082 C.ar    1  LIG111      0.0137
      8 C          -3.0303    3.3722   -5.1205 C.ar    1  LIG111     -0.0411
      9 C          -4.2510    4.2670   -5.3726 C.3     1  LIG111     -0.0368
     10 H          -4.9118    3.7579   -6.0850 H       1  LIG111      0.0298
     11 H          -3.8645    5.1622   -5.8851 H       1  LIG111      0.0298
     12 C          -4.9975    4.6938   -4.0552 C.3     1  LIG111     -0.0432
     13 H          -5.4330    5.6910   -4.2357 H       1  LIG111      0.0126
     14 C          -4.0216    4.8683   -2.8407 C.3     1  LIG111      0.0720
     15 C          -2.9300    5.9450   -3.1293 C.3     1  LIG111      0.0031
     16 H          -3.3675    6.9548   -3.1265 H       1  LIG111      0.0341
     17 H          -2.4188    5.7963   -4.0895 H       1  LIG111      0.0341
     18 C          -1.8338    5.8414   -2.0800 C.ar    1  LIG111     -0.0128
     19 C          -1.5204    4.6765   -1.3806 C.ar    1  LIG111      0.0622
     20 C          -2.2273    3.3355   -1.5436 C.3     1  LIG111      0.1523
     21 H          -2.5593    3.0329   -0.5388 H       1  LIG111      0.0809
     22 C          -3.4120    3.4676   -2.5616 C.3     1  LIG111      0.0677
     23 C          -4.5102    2.4144   -2.2629 C.3     1  LIG111     -0.0518
     24 H          -4.9812    2.6657   -1.2989 H       1  LIG111      0.0258
     25 H          -4.0615    1.4111   -2.1692 H       1  LIG111      0.0258
     26 C          -5.5948    2.3978   -3.3709 C.3     1  LIG111     -0.0891
     27 H          -6.4103    1.7366   -3.0303 H       1  LIG111      0.0059
     28 H          -5.1815    1.9473   -4.2871 H       1  LIG111      0.0059
     29 N          -6.1005    3.7675   -3.6520 N.4     1  LIG111      0.3839
     30 C          -7.2964    3.7410   -4.5449 C.3     1  LIG111     -0.0872
     31 H          -8.1050    3.1535   -4.0777 H       1  LIG111      0.0062
     32 H          -7.0729    3.2496   -5.5030 H       1  LIG111      0.0062
     33 C          -7.9004    5.1528   -4.7699 C.3     1  LIG111     -0.0559
     34 H          -8.1505    5.7811   -3.8997 H       1  LIG111      0.0283
     35 C          -8.9096    5.2621   -5.9347 C.3     1  LIG111     -0.0517
     36 H          -9.7444    5.9709   -5.8183 H       1  LIG111      0.0267
     37 H          -9.0997    4.3658   -6.5452 H       1  LIG111      0.0267
     38 C          -7.5062    5.8914   -6.0685 C.3     1  LIG111     -0.0517
     39 H          -7.4479    6.9893   -6.0100 H       1  LIG111      0.0267
     40 H          -6.8113    5.3940   -6.7617 H       1  LIG111      0.0267
     41 O          -1.2686    2.3781   -2.0798 O.3     1  LIG111     -0.4778
     42 N          -0.4980    4.9157   -0.5341 N.ar    1  LIG111     -0.3548
     43 H          -0.0635    4.2295    0.1005 H       1  LIG111      0.1657
     44 C          -0.1448    6.2082   -0.6679 C.ar    1  LIG111      0.0470
     45 C           0.8612    6.9027    0.0021 C.ar    1  LIG111     -0.0375
     46 H           1.4786    6.4154    0.7494 H       1  LIG111      0.0638
     47 C           1.0397    8.2509   -0.3324 C.ar    1  LIG111     -0.0565
     48 H           1.8230    8.8131    0.1658 H       1  LIG111      0.0621
     49 C           0.2325    8.8794   -1.2959 C.ar    1  LIG111     -0.0437
     50 C          -0.7821    8.1658   -1.9503 C.ar    1  LIG111     -0.0490
     51 H          -1.4165    8.6351   -2.6941 H       1  LIG111      0.0627
     52 C          -0.9501    6.8216   -1.6199 C.ar    1  LIG111      0.0036
     53 C           0.4623   10.3569   -1.6475 C.3     1  LIG111      0.0031
     54 H           0.8600   10.8738   -0.7628 H       1  LIG111      0.0344
     55 H          -0.4972   10.8330   -1.9074 H       1  LIG111      0.0344
     56 C           1.4416   10.4505   -2.8481 C.3     1  LIG111      0.0685
     57 H           1.4924   11.4499   -3.2850 H       1  LIG111      0.0658
     58 H           0.9878    9.8457   -3.6533 H       1  LIG111      0.0658
     59 N           2.7192    9.8214   -2.4946 N.pl3   1  LIG111     -0.2783
     60 H           2.7398    8.8011   -2.6627 H       1  LIG111      0.2578
     61 C           3.7906   10.3859   -2.0218 C.cat   1  LIG111      0.3435
     62 N           4.7801    9.5772   -1.7835 N.pl3   1  LIG111     -0.2917
     63 H           5.6814    9.9113   -1.4095 H       1  LIG111      0.2546
     64 N           4.0239   11.6357   -1.7505 N.pl3   1  LIG111     -0.2745
     65 H           4.9461   11.8900   -1.3608 H       1  LIG111      0.2581
     66 C           3.1170   12.7686   -1.9351 C.3     1  LIG111      0.0898
     67 O          -4.7469    5.2396   -1.6543 O.3     1  LIG111     -0.3888
     68 H          -5.1864    6.0802   -1.7312 H       1  LIG111      0.2101
     69 O           0.5066    1.2530   -4.1162 O.3     1  LIG111     -0.5033
     70 H           0.6648    1.2113   -3.1794 H       1  LIG111      0.2923
     71 H          -6.4883    4.1448   -2.7096 H       1  LIG111     -0.0813
     72 H           4.7117    8.5626   -1.9569 H       1  LIG111      0.2546
     73 C           3.7136   14.0384   -1.2995 C.ar    1  LIG111     -0.0141
     74 C           4.6542   14.7979   -2.0056 C.ar    1  LIG111     -0.0556
     75 C           5.1873   15.9643   -1.4495 C.ar    1  LIG111     -0.0614
     76 C           4.7896   16.3757   -0.1747 C.ar    1  LIG111     -0.0617
     77 C           3.8632   15.6144    0.5431 C.ar    1  LIG111     -0.0614
     78 C           3.3316   14.4485   -0.0160 C.ar    1  LIG111     -0.0556
     79 H           3.0059   12.9882   -3.0077 H       1  LIG111      0.0706
     80 H           2.1373   12.6141   -1.4685 H       1  LIG111      0.0706
     81 H           4.9781   14.4834   -2.9926 H       1  LIG111      0.0621
     82 H           5.9104   16.5508   -2.0078 H       1  LIG111      0.0618
     83 H           5.1990   17.2836    0.2569 H       1  LIG111      0.0618
     84 H           3.5565   15.9293    1.5359 H       1  LIG111      0.0618
     85 H           2.6198   13.8629    0.5569 H       1  LIG111      0.0621
@<TRIPOS>BOND
     1     2     1    1
     2    40    38    1
     3     4     3    1
     4    37    35    1
     5     1     3   ar
     6     1     8   ar
     7    10     9    1
     8    38    39    1
     9    38    35    1
    10    38    33    1
    11    35    36    1
    12    35    33    1
    13    11     9    1
    14     3     5   ar
    15    32    30    1
    16     9     8    1
    17     9    12    1
    18     8     7   ar
    19    33    30    1
    20    33    34    1
    21    30    31    1
    22    30    29    1
    23     5    69    1
    24     5     6   ar
    25    28    26    1
    26    13    12    1
    27    69    70    1
    28    17    15    1
    29    12    29    1
    30    12    14    1
    31     7     6   ar
    32     7    22    1
    33    58    56    1
    34    29    26    1
    35    29    71    1
    36     6    41    1
    37    26    27    1
    38    26    23    1
    39    57    56    1
    40    15    16    1
    41    15    14    1
    42    15    18    1
    43    79    66    1
    44    81    74    1
    45    56    59    1
    46    56    53    1
    47    14    22    1
    48    14    67    1
    49    51    50    1
    50    60    59    1
    51    22    23    1
    52    22    20    1
    53    59    61    1
    54    23    25    1
    55    23    24    1
    56    18    52   ar
    57    18    19   ar
    58    41    20    1
    59    61    62    2
    60    61    64    1
    61    82    75    1
    62    74    75   ar
    63    74    73   ar
    64    72    62    1
    65    50    52   ar
    66    50    49   ar
    67    66    64    1
    68    66    80    1
    69    66    73    1
    70    55    53    1
    71    62    63    1
    72    64    65    1
    73    68    67    1
    74    53    49    1
    75    53    54    1
    76    52    44   ar
    77    20    19    1
    78    20    21    1
    79    75    76   ar
    80    19    42   ar
    81    73    78   ar
    82    49    47   ar
    83    44    42   ar
    84    44    45   ar
    85    42    43    1
    86    47    45   ar
    87    47    48    1
    88    76    83    1
    89    76    77   ar
    90    78    77   ar
    91    78    85    1
    92    45    46    1
    93    77    84    1
