@<TRIPOS>MOLECULE
MOLECULE_03
 87 95 0 0 0
SMALL
GASTEIGER

@<TRIPOS>ATOM
      1 C          -2.2149    2.8224   -6.1163 C.ar    1  LIG111     -0.0547
      2 H          -2.4805    2.9556   -7.1598 H       1  LIG111      0.0622
      3 C          -1.0555    2.1071   -5.7730 C.ar    1  LIG111     -0.0162
      4 H          -0.4375    1.6850   -6.5587 H       1  LIG111      0.0655
      5 C          -0.6735    1.9279   -4.4354 C.ar    1  LIG111      0.1588
      6 C          -1.5084    2.4514   -3.4458 C.ar    1  LIG111      0.1668
      7 C          -2.6699    3.0985   -3.8079 C.ar    1  LIG111      0.0137
      8 C          -3.0300    3.3737   -5.1201 C.ar    1  LIG111     -0.0411
      9 C          -4.2505    4.2687   -5.3720 C.3     1  LIG111     -0.0368
     10 H          -4.9102    3.7596   -6.0852 H       1  LIG111      0.0298
     11 H          -3.8640    5.1643   -5.8839 H       1  LIG111      0.0298
     12 C          -4.9982    4.6938   -4.0548 C.3     1  LIG111     -0.0432
     13 H          -5.4354    5.6902   -4.2352 H       1  LIG111      0.0126
     14 C          -4.0227    4.8689   -2.8400 C.3     1  LIG111      0.0720
     15 C          -2.9325    5.9472   -3.1273 C.3     1  LIG111      0.0031
     16 H          -3.3710    6.9565   -3.1238 H       1  LIG111      0.0341
     17 H          -2.4212    5.7998   -4.0878 H       1  LIG111      0.0341
     18 C          -1.8362    5.8440   -2.0782 C.ar    1  LIG111     -0.0128
     19 C          -1.5200    4.6786   -1.3806 C.ar    1  LIG111      0.0622
     20 C          -2.2258    3.3370   -1.5438 C.3     1  LIG111      0.1523
     21 H          -2.5578    3.0338   -0.5392 H       1  LIG111      0.0809
     22 C          -3.4113    3.4687   -2.5610 C.3     1  LIG111      0.0677
     23 C          -4.5084    2.4144   -2.2620 C.3     1  LIG111     -0.0518
     24 H          -4.9797    2.6653   -1.2980 H       1  LIG111      0.0258
     25 H          -4.0587    1.4117   -2.1683 H       1  LIG111      0.0258
     26 C          -5.5927    2.3966   -3.3704 C.3     1  LIG111     -0.0891
     27 H          -6.4076    1.7346   -3.0292 H       1  LIG111      0.0059
     28 H          -5.1786    1.9459   -4.2860 H       1  LIG111      0.0059
     29 N          -6.1000    3.7656   -3.6529 N.4     1  LIG111      0.3839
     30 C          -7.2943    3.7356   -4.5480 C.3     1  LIG111     -0.0872
     31 H          -8.1020    3.1461   -4.0814 H       1  LIG111      0.0062
     32 H          -7.0682    3.2437   -5.5053 H       1  LIG111      0.0062
     33 C          -7.9033    5.1448   -4.7761 C.3     1  LIG111     -0.0559
     34 H          -8.1587    5.7727   -3.9073 H       1  LIG111      0.0283
     35 C          -8.9110    5.2457   -5.9429 C.3     1  LIG111     -0.0517
     36 H          -9.7508    5.9490   -5.8294 H       1  LIG111      0.0267
     37 H          -9.0932    4.3486   -6.5548 H       1  LIG111      0.0267
     38 C          -7.5116    5.8843   -6.0748 C.3     1  LIG111     -0.0517
     39 H          -7.4635    6.9829   -6.0204 H       1  LIG111      0.0267
     40 H          -6.8129    5.3908   -6.7672 H       1  LIG111      0.0267
     41 O          -1.2678    2.3790   -2.0799 O.3     1  LIG111     -0.4778
     42 N          -0.4966    4.9187   -0.5355 N.ar    1  LIG111     -0.3548
     43 H          -0.0597    4.2324    0.0974 H       1  LIG111      0.1657
     44 C          -0.1463    6.2121   -0.6678 C.ar    1  LIG111      0.0470
     45 C           0.8595    6.9080    0.0012 C.ar    1  LIG111     -0.0375
     46 H           1.4801    6.4201    0.7453 H       1  LIG111      0.0638
     47 C           1.0331    8.2577   -0.3299 C.ar    1  LIG111     -0.0565
     48 H           1.8151    8.8215    0.1688 H       1  LIG111      0.0621
     49 C           0.2228    8.8861   -1.2911 C.ar    1  LIG111     -0.0437
     50 C          -0.7912    8.1710   -1.9446 C.ar    1  LIG111     -0.0490
     51 H          -1.4289    8.6403   -2.6855 H       1  LIG111      0.0627
     52 C          -0.9546    6.8255   -1.6171 C.ar    1  LIG111      0.0036
     53 C           0.4480   10.3647   -1.6416 C.3     1  LIG111      0.0031
     54 H           0.8495   10.8805   -0.7577 H       1  LIG111      0.0344
     55 H          -0.5134   10.8398   -1.8961 H       1  LIG111      0.0344
     56 C           1.4217   10.4604   -2.8469 C.3     1  LIG111      0.0685
     57 H           1.4729   11.4592   -3.2857 H       1  LIG111      0.0658
     58 H           0.9657    9.8556   -3.6507 H       1  LIG111      0.0658
     59 N           2.6989    9.8310   -2.4933 N.pl3   1  LIG111     -0.2783
     60 H           2.7235    8.8123   -2.6703 H       1  LIG111      0.2578
     61 C           3.7868   10.4057   -1.9960 C.cat   1  LIG111      0.3435
     62 N           4.7917    9.5821   -1.7434 N.pl3   1  LIG111     -0.2917
     63 H           5.6880    9.9156   -1.3572 H       1  LIG111      0.2546
     64 N           4.0205   11.6803   -1.7123 N.pl3   1  LIG111     -0.2745
     65 H           4.9374   11.9337   -1.3097 H       1  LIG111      0.2581
     66 C           3.1173   12.8141   -1.9101 C.3     1  LIG111      0.0899
     67 O          -4.7483    5.2385   -1.6531 O.3     1  LIG111     -0.3888
     68 H          -5.1887    6.0783   -1.7291 H       1  LIG111      0.2101
     69 O           0.5032    1.2478   -4.1163 O.3     1  LIG111     -0.5033
     70 H           0.6580    1.2002   -3.1790 H       1  LIG111      0.2923
     71 H          -6.4897    4.1431   -2.7115 H       1  LIG111     -0.0813
     72 H           4.7253    8.5681   -1.9196 H       1  LIG111      0.2546
     73 C           3.7094   14.0815   -1.2665 C.ar    1  LIG111     -0.0140
     74 C           4.6470   14.8523   -1.9613 C.ar    1  LIG111     -0.0534
     75 C           5.1771   16.0136   -1.3917 C.ar    1  LIG111     -0.0311
     76 C           4.7895   16.4304   -0.1102 C.ar    1  LIG111      0.1262
     77 C           3.8589   15.6456    0.5858 C.ar    1  LIG111     -0.0311
     78 C           3.3286   14.4834    0.0179 C.ar    1  LIG111     -0.0534
     79 H           3.0191   13.0322   -2.9843 H       1  LIG111      0.0706
     80 H           2.1316   12.6657   -1.4552 H       1  LIG111      0.0706
     81 H           4.9712   14.5490   -2.9520 H       1  LIG111      0.0622
     82 H           5.8978   16.5853   -1.9674 H       1  LIG111      0.0640
     83 H           3.5316   15.9259    1.5818 H       1  LIG111      0.0640
     84 H           2.6169   13.8915    0.5852 H       1  LIG111      0.0622
     85 N           5.3023   17.5636    0.4420 N.pl3   1  LIG111      0.0564
     86 O           4.9337   17.8790    1.5527 O.2     1  LIG111     -0.1261
     87 O           6.1037   18.2049   -0.2025 O.2     1  LIG111     -0.1261
@<TRIPOS>BOND
     1     2     1    1
     2    40    38    1
     3     4     3    1
     4    37    35    1
     5     1     3   ar
     6     1     8   ar
     7    10     9    1
     8    38    39    1
     9    38    35    1
    10    38    33    1
    11    35    36    1
    12    35    33    1
    13    11     9    1
    14     3     5   ar
    15    32    30    1
    16     9     8    1
    17     9    12    1
    18     8     7   ar
    19    33    30    1
    20    33    34    1
    21    30    31    1
    22    30    29    1
    23     5    69    1
    24     5     6   ar
    25    28    26    1
    26    13    12    1
    27    69    70    1
    28    17    15    1
    29    12    29    1
    30    12    14    1
    31     7     6   ar
    32     7    22    1
    33    29    26    1
    34    29    71    1
    35    58    56    1
    36     6    41    1
    37    26    27    1
    38    26    23    1
    39    57    56    1
    40    15    16    1
    41    15    14    1
    42    15    18    1
    43    79    66    1
    44    81    74    1
    45    56    59    1
    46    56    53    1
    47    14    22    1
    48    14    67    1
    49    51    50    1
    50    60    59    1
    51    22    23    1
    52    22    20    1
    53    59    61    1
    54    23    25    1
    55    23    24    1
    56    41    20    1
    57    18    52   ar
    58    18    19   ar
    59    61    62    2
    60    61    64    1
    61    82    75    1
    62    74    75   ar
    63    74    73   ar
    64    50    52   ar
    65    50    49   ar
    66    72    62    1
    67    66    64    1
    68    66    80    1
    69    66    73    1
    70    55    53    1
    71    62    63    1
    72    68    67    1
    73    64    65    1
    74    53    49    1
    75    53    54    1
    76    52    44   ar
    77    20    19    1
    78    20    21    1
    79    75    76   ar
    80    19    42   ar
    81    49    47   ar
    82    73    78   ar
    83    44    42   ar
    84    44    45   ar
    85    42    43    1
    86    47    45   ar
    87    47    48    1
    88    87    85    2
    89    76    85    1
    90    76    77   ar
    91    45    46    1
    92    78    84    1
    93    78    77   ar
    94    85    86    2
    95    77    83    1
