@<TRIPOS>MOLECULE
MOLECULE-12
 96 103 0 0 0
SMALL
GASTEIGER
Energy = 0

@<TRIPOS>ATOM
      1 C          -2.2158    2.8236   -6.1154 C.ar    1  LIG11      -0.0547
      2 H          -2.4818    2.9575   -7.1587 H       1  LIG11       0.0622
      3 C          -1.0576    2.1058   -5.7731 C.ar    1  LIG11      -0.0162
      4 H          -0.4415    1.6818   -6.5592 H       1  LIG11       0.0655
      5 C          -0.6745    1.9266   -4.4358 C.ar    1  LIG11       0.1588
      6 C          -1.5077    2.4514   -3.4456 C.ar    1  LIG11       0.1668
      7 C          -2.6697    3.0981   -3.8066 C.ar    1  LIG11       0.0137
      8 C          -3.0290    3.3760   -5.1184 C.ar    1  LIG11      -0.0411
      9 C          -4.2470    4.2748   -5.3691 C.3     1  LIG11      -0.0368
     10 H          -4.9057    3.7717   -6.0875 H       1  LIG11       0.0298
     11 H          -3.8563    5.1727   -5.8739 H       1  LIG11       0.0298
     12 C          -4.9983    4.6941   -4.0522 C.3     1  LIG11      -0.0432
     13 H          -5.4353    5.6912   -4.2297 H       1  LIG11       0.0126
     14 C          -4.0264    4.8641   -2.8341 C.3     1  LIG11       0.0720
     15 C          -2.9370    5.9447   -3.1129 C.3     1  LIG11       0.0031
     16 H          -3.3790    6.9524   -3.1165 H       1  LIG11       0.0341
     17 H          -2.4147    5.7963   -4.0674 H       1  LIG11       0.0341
     18 C          -1.8556    5.8448   -2.0484 C.ar    1  LIG11      -0.0128
     19 C          -1.5339    4.6756   -1.3600 C.ar    1  LIG11       0.0622
     20 C          -2.2287    3.3300   -1.5408 C.3     1  LIG11       0.1523
     21 H          -2.5627    3.0156   -0.5403 H       1  LIG11       0.0809
     22 C          -3.4131    3.4639   -2.5596 C.3     1  LIG11       0.0677
     23 C          -4.5103    2.4077   -2.2676 C.3     1  LIG11      -0.0518
     24 H          -4.9832    2.6538   -1.3031 H       1  LIG11       0.0258
     25 H          -4.0603    1.4048   -2.1780 H       1  LIG11       0.0258
     26 C          -5.5932    2.3945   -3.3777 C.3     1  LIG11      -0.0891
     27 H          -6.4087    1.7313   -3.0404 H       1  LIG11       0.0059
     28 H          -5.1780    1.9475   -4.2946 H       1  LIG11       0.0059
     29 N          -6.1007    3.7643   -3.6562 N.4     1  LIG11       0.3839
     30 C          -7.2926    3.7376   -4.5545 C.3     1  LIG11      -0.0872
     31 H          -8.1020    3.1479   -4.0910 H       1  LIG11       0.0062
     32 H          -7.0643    3.2473   -5.5120 H       1  LIG11       0.0062
     33 C          -7.8998    5.1477   -4.7818 C.3     1  LIG11      -0.0559
     34 H          -8.1576    5.7742   -3.9127 H       1  LIG11       0.0283
     35 C          -8.9032    5.2518   -5.9522 C.3     1  LIG11      -0.0517
     36 H          -9.7429    5.9556   -5.8405 H       1  LIG11       0.0267
     37 H          -9.0837    4.3560   -6.5664 H       1  LIG11       0.0267
     38 C          -7.5029    5.8898   -6.0776 C.3     1  LIG11      -0.0517
     39 H          -7.4553    6.9884   -6.0218 H       1  LIG11       0.0267
     40 H          -6.8029    5.3975   -6.7694 H       1  LIG11       0.0267
     41 O          -1.2649    2.3797   -2.0801 O.3     1  LIG11      -0.4778
     42 N          -0.5204    4.9175   -0.5032 N.ar    1  LIG11      -0.3548
     43 H          -0.0816    4.2291    0.1260 H       1  LIG11       0.1657
     44 C          -0.1900    6.2186   -0.6108 C.ar    1  LIG11       0.0470
     45 C           0.7946    6.9217    0.0822 C.ar    1  LIG11      -0.0375
     46 H           1.4233    6.4299    0.8168 H       1  LIG11       0.0638
     47 C           0.9354    8.2841   -0.2111 C.ar    1  LIG11      -0.0566
     48 H           1.6958    8.8561    0.3113 H       1  LIG11       0.0621
     49 C           0.1176    8.9162   -1.1634 C.ar    1  LIG11      -0.0455
     50 C          -0.8572    8.1877   -1.8601 C.ar    1  LIG11      -0.0491
     51 H          -1.4850    8.6537   -2.6115 H       1  LIG11       0.0627
     52 C          -0.9975    6.8335   -1.5596 C.ar    1  LIG11       0.0036
     53 C           0.2863   10.4158   -1.4524 C.3     1  LIG11      -0.0150
     54 H           0.5874   10.9125   -0.5188 H       1  LIG11       0.0325
     55 H          -0.6800   10.8454   -1.7630 H       1  LIG11       0.0325
     56 C           1.3368   10.6190   -2.5785 C.3     1  LIG11       0.0028
     57 H           1.2807   11.5919   -3.0712 H       1  LIG11       0.0428
     58 H           1.0388    9.9271   -3.3865 H       1  LIG11       0.0428
     59 N           2.6606   10.2029   -2.1009 N.3     1  LIG11      -0.2824
     60 H           2.8336    9.1928   -2.2373 H       1  LIG11       0.1250
     61 C           3.6207   10.9485   -1.5560 C.3     1  LIG11       0.1723
     62 N           4.7162   10.2671   -1.2209 N.3     1  LIG11      -0.2827
     63 C           2.5147   13.2049   -1.5916 C.3     1  LIG11      -0.0012
     64 N           3.5971   12.2552   -1.3189 N.3     1  LIG11      -0.2827
     65 H           4.4118   12.6925   -0.8846 H       1  LIG11       0.1250
     66 C           2.7590   14.5755   -0.8939 C.3     1  LIG11      -0.0406
     67 O          -4.7561    5.2283   -1.6480 O.3     1  LIG11      -0.3888
     68 H          -5.1961    6.0685   -1.7216 H       1  LIG11       0.2101
     69 O           0.5014    1.2447   -4.1176 O.3     1  LIG11      -0.5033
     70 H           0.6523    1.1892   -3.1802 H       1  LIG11       0.2923
     71 H          -6.4926    4.1382   -2.7143 H       1  LIG11      -0.0813
     72 H           4.7585    9.2483   -1.3914 H       1  LIG11       0.1250
     73 C           1.6030   15.5781   -1.1662 C.3     1  LIG11      -0.0548
     74 C           1.8601   16.9393   -0.4690 C.3     1  LIG11      -0.0652
     75 C           5.9443   10.8205   -0.6240 C.3     1  LIG11      -0.0012
     76 C           5.7724   11.0328    0.9073 C.3     1  LIG11      -0.0406
     77 C           7.0496   11.6510    1.5386 C.3     1  LIG11      -0.0548
     78 C           6.8856   11.8542    3.0674 C.3     1  LIG11      -0.0652
     79 H           2.4749   13.4168   -2.6717 H       1  LIG11       0.0425
     80 H           1.5472   12.8655   -1.2058 H       1  LIG11       0.0425
     81 H           3.7036   15.0121   -1.2595 H       1  LIG11       0.0277
     82 H           2.8517   14.4143    0.1933 H       1  LIG11       0.0277
     83 H           0.6525   15.1607   -0.7939 H       1  LIG11       0.0263
     84 H           1.5052   15.7429   -2.2522 H       1  LIG11       0.0263
     85 H           1.0284   17.6322   -0.6728 H       1  LIG11       0.0230
     86 H           2.7923   17.3920   -0.8411 H       1  LIG11       0.0230
     87 H           1.9433   16.8026    0.6205 H       1  LIG11       0.0230
     88 H           6.7514   10.0749   -0.7380 H       1  LIG11       0.0425
     89 H           6.3252   11.7079   -1.1534 H       1  LIG11       0.0425
     90 H           5.5650   10.0563    1.3756 H       1  LIG11       0.0277
     91 H           4.9153   11.6876    1.1243 H       1  LIG11       0.0277
     92 H           7.2553   12.6266    1.0671 H       1  LIG11       0.0263
     93 H           7.9124   10.9894    1.3538 H       1  LIG11       0.0263
     94 H           7.8028   12.2923    3.4918 H       1  LIG11       0.0230
     95 H           6.6954   10.8900    3.5641 H       1  LIG11       0.0230
     96 H           6.0441   12.5327    3.2774 H       1  LIG11       0.0230
@<TRIPOS>BOND
     1     2     1    1
     2    40    38    1
     3    37    35    1
     4     4     3    1
     5     1     3   ar
     6     1     8   ar
     7    10     9    1
     8    38    39    1
     9    38    35    1
    10    38    33    1
    11    35    36    1
    12    35    33    1
    13    11     9    1
    14     3     5   ar
    15    32    30    1
    16     9     8    1
    17     9    12    1
    18     8     7   ar
    19    33    30    1
    20    33    34    1
    21    30    31    1
    22    30    29    1
    23     5    69    1
    24     5     6   ar
    25    28    26    1
    26    13    12    1
    27    69    70    1
    28    17    15    1
    29    12    29    1
    30    12    14    1
    31     7     6   ar
    32     7    22    1
    33    29    26    1
    34    29    71    1
    35     6    41    1
    36    58    56    1
    37    26    27    1
    38    26    23    1
    39    16    15    1
    40    15    14    1
    41    15    18    1
    42    57    56    1
    43    14    22    1
    44    14    67    1
    45    79    63    1
    46    51    50    1
    47    56    59    1
    48    56    53    1
    49    22    23    1
    50    22    20    1
    51    23    25    1
    52    23    24    1
    53    84    73    1
    54    60    59    1
    55    59    61    1
    56    41    20    1
    57    18    52   ar
    58    18    19   ar
    59    50    52   ar
    60    50    49   ar
    61    55    53    1
    62    68    67    1
    63    63    64    1
    64    63    80    1
    65    63    66    1
    66    52    44   ar
    67    61    64    1
    68    61    62    1
    69    20    19    1
    70    20    21    1
    71    53    49    1
    72    53    54    1
    73    72    62    1
    74    19    42   ar
    75    64    65    1
    76    81    66    1
    77    62    75    1
    78    73    66    1
    79    73    83    1
    80    73    74    1
    81    49    47   ar
    82    89    75    1
    83    66    82    1
    84    86    74    1
    85    88    75    1
    86    85    74    1
    87    75    76    1
    88    44    42   ar
    89    44    45   ar
    90    42    43    1
    91    74    87    1
    92    47    45   ar
    93    47    48    1
    94    45    46    1
    95    76    91    1
    96    76    90    1
    97    76    77    1
    98    92    77    1
    99    93    77    1
   100    77    78    1
   101    78    96    1
   102    78    94    1
   103    78    95    1
