@<TRIPOS>MOLECULE
MOLECULE-33
 78 86 0 0 0
SMALL
GASTEIGER
Energy = 0

@<TRIPOS>ATOM
      1 C          -2.2161    2.8245   -6.1150 C.ar    1  LIG11      -0.0547
      2 C           0.6918   12.7006   -0.6081 C.3     1  LIG11       0.0159
      3 C          -1.0591    2.1048   -5.7731 C.ar    1  LIG11      -0.0162
      4 C          -0.7155   13.3366   -0.4959 C.3     1  LIG11      -0.0120
      5 C          -0.6757    1.9251   -4.4360 C.ar    1  LIG11       0.1588
      6 C          -1.5077    2.4515   -3.4455 C.ar    1  LIG11       0.1668
      7 C          -2.6694    3.0992   -3.8059 C.ar    1  LIG11       0.0137
      8 C          -3.0284    3.3778   -5.1176 C.ar    1  LIG11      -0.0411
      9 C          -4.2451    4.2781   -5.3677 C.3     1  LIG11      -0.0368
     10 C          -0.6158   14.8555   -0.6974 C.ar    1  LIG11      -0.0459
     11 C          -0.5413   15.7176    0.4028 C.ar    1  LIG11      -0.0585
     12 C          -4.9980    4.6946   -4.0510 C.3     1  LIG11      -0.0432
     13 C          -0.4602   17.1002    0.2125 C.ar    1  LIG11      -0.0615
     14 C          -4.0273    4.8654   -2.8316 C.3     1  LIG11       0.0720
     15 C          -2.9386    5.9485   -3.1052 C.3     1  LIG11       0.0031
     16 C          -0.4458   17.6289   -1.0811 C.ar    1  LIG11      -0.0617
     17 C          -0.5128   16.7721   -2.1832 C.ar    1  LIG11      -0.0615
     18 C          -1.8603    5.8497   -2.0366 C.ar    1  LIG11      -0.0128
     19 C          -1.5353    4.6758   -1.3572 C.ar    1  LIG11       0.0622
     20 C          -2.2283    3.3302   -1.5413 C.3     1  LIG11       0.1523
     21 C          -0.5965   15.3900   -1.9906 C.ar    1  LIG11      -0.0585
     22 C          -3.4131    3.4650   -2.5589 C.3     1  LIG11       0.0677
     23 C          -4.5096    2.4086   -2.2655 C.3     1  LIG11      -0.0518
     24 H          -2.4818    2.9593   -7.1583 H       1  LIG11       0.0622
     25 H           1.3560   13.1722    0.1362 H       1  LIG11       0.0465
     26 C          -5.5911    2.3934   -3.3767 C.3     1  LIG11      -0.0891
     27 H           1.1198   12.9007   -1.6041 H       1  LIG11       0.0465
     28 H          -0.4439    1.6795   -6.5593 H       1  LIG11       0.0655
     29 N          -6.0995    3.7622   -3.6579 N.4     1  LIG11       0.3839
     30 C          -7.2885    3.7304   -4.5598 C.3     1  LIG11      -0.0872
     31 H          -1.1413   13.1063    0.4936 H       1  LIG11       0.0328
     32 H          -1.3876   12.9068   -1.2553 H       1  LIG11       0.0328
     33 C          -7.8959    5.1388   -4.7968 C.3     1  LIG11      -0.0559
     34 H          -4.9030    3.7766   -6.0880 H       1  LIG11       0.0298
     35 C          -8.9020    5.2331   -5.9657 C.3     1  LIG11      -0.0517
     36 H          -3.8530    5.1769   -5.8697 H       1  LIG11       0.0298
     37 H          -0.5445   15.3178    1.4118 H       1  LIG11       0.0620
     38 C          -7.5024    5.8709   -6.0992 C.3     1  LIG11      -0.0517
     39 H          -5.4370    5.6908   -4.2287 H       1  LIG11       0.0126
     40 H          -0.4080   17.7642    1.0699 H       1  LIG11       0.0618
     41 O          -1.2640    2.3803   -2.0803 O.3     1  LIG11      -0.4778
     42 N          -0.5198    4.9124   -0.5021 N.ar    1  LIG11      -0.3548
     43 H          -3.3820    6.9555   -3.1106 H       1  LIG11       0.0341
     44 C          -0.1957    6.2155   -0.5976 C.ar    1  LIG11       0.0471
     45 C           0.7911    6.9125    0.0969 C.ar    1  LIG11      -0.0371
     46 H          -2.4130    5.8002   -4.0579 H       1  LIG11       0.0341
     47 C           0.9306    8.2774   -0.1842 C.ar    1  LIG11      -0.0477
     48 H          -0.3824   18.7026   -1.2295 H       1  LIG11       0.0618
     49 C           0.0840    8.9300   -1.0973 C.ar    1  LIG11       0.0374
     50 C          -0.8808    8.2009   -1.8089 C.ar    1  LIG11      -0.0402
     51 H          -0.4996   17.1804   -3.1891 H       1  LIG11       0.0618
     52 C          -1.0098    6.8393   -1.5348 C.ar    1  LIG11       0.0040
     53 C           0.1900   10.4227   -1.3403 C.2     1  LIG11       0.2441
     54 N           0.6040   11.2625   -0.3606 N.am    1  LIG11      -0.3110
     55 H          -2.5618    3.0148   -0.5409 H       1  LIG11       0.0809
     56 H          -0.6449   14.7318   -2.8524 H       1  LIG11       0.0620
     57 H          -4.9834    2.6557   -1.3017 H       1  LIG11       0.0258
     58 H          -4.0592    1.4061   -2.1743 H       1  LIG11       0.0258
     59 H          -6.4063    1.7297   -3.0394 H       1  LIG11       0.0059
     60 H          -5.1740    1.9456   -4.2924 H       1  LIG11       0.0059
     61 H          -6.4945    4.1364   -2.7173 H       1  LIG11      -0.0813
     62 H          -8.0990    3.1425   -4.0959 H       1  LIG11       0.0062
     63 H          -7.0571    3.2353   -5.5142 H       1  LIG11       0.0062
     64 H          -8.1532    5.7713   -3.9319 H       1  LIG11       0.0283
     65 H          -9.7422    5.9367   -5.8569 H       1  LIG11       0.0267
     66 H          -9.0834    4.3323   -6.5723 H       1  LIG11       0.0267
     67 H          -7.4570    6.9700   -6.0539 H       1  LIG11       0.0267
     68 H          -6.8062    5.3739   -6.7916 H       1  LIG11       0.0267
     69 H          -0.0755    4.2192    0.1181 H       1  LIG11       0.1657
     70 H           1.4247    6.4133    0.8224 H       1  LIG11       0.0638
     71 H           1.7223    8.8232    0.3164 H       1  LIG11       0.0626
     72 H          -1.5177    8.6733   -2.5486 H       1  LIG11       0.0632
     73 H           0.7950   10.9393    0.5676 H       1  LIG11       0.1490
     74 H          -5.1999    6.0666   -1.7186 H       1  LIG11       0.2101
     75 H           0.6525    1.1890   -3.1808 H       1  LIG11       0.2923
     76 O          -0.1223   10.8344   -2.4467 O.2     1  LIG11      -0.2702
     77 O          -4.7591    5.2266   -1.6459 O.3     1  LIG11      -0.3888
     78 O           0.4991    1.2411   -4.1180 O.3     1  LIG11      -0.5033
@<TRIPOS>BOND
     1    24     1    1
     2    68    38    1
     3    66    35    1
     4    28     3    1
     5     1     3   ar
     6     1     8   ar
     7    38    67    1
     8    38    35    1
     9    38    33    1
    10    34     9    1
    11    35    65    1
    12    35    33    1
    13    36     9    1
    14     3     5   ar
    15    63    30    1
    16     9     8    1
    17     9    12    1
    18     8     7   ar
    19    33    30    1
    20    33    64    1
    21    30    62    1
    22    30    29    1
    23     5    78    1
    24     5     6   ar
    25    60    26    1
    26    39    12    1
    27    78    75    1
    28    46    15    1
    29    12    29    1
    30    12    14    1
    31     7     6   ar
    32     7    22    1
    33    29    26    1
    34    29    61    1
    35     6    41    1
    36    26    59    1
    37    26    23    1
    38    51    17    1
    39    43    15    1
    40    15    14    1
    41    15    18    1
    42    56    21    1
    43    14    22    1
    44    14    77    1
    45    22    23    1
    46    22    20    1
    47    72    50    1
    48    76    53    2
    49    23    58    1
    50    23    57    1
    51    17    21   ar
    52    17    16   ar
    53    41    20    1
    54    18    52   ar
    55    18    19   ar
    56    21    10   ar
    57    50    52   ar
    58    50    49   ar
    59    74    77    1
    60    27     2    1
    61    20    19    1
    62    20    55    1
    63    52    44   ar
    64    19    42   ar
    65    53    49    1
    66    53    54   am
    67    32     4    1
    68    48    16    1
    69    49    47   ar
    70    16    13   ar
    71    10     4    1
    72    10    11   ar
    73     2     4    1
    74     2    54    1
    75     2    25    1
    76    44    42   ar
    77    44    45   ar
    78    42    69    1
    79     4    31    1
    80    54    73    1
    81    47    45   ar
    82    47    71    1
    83    45    70    1
    84    13    11   ar
    85    13    40    1
    86    11    37    1
