@<TRIPOS>MOLECULE
MOLECULE_31
 83 90 0 0 0
SMALL
GASTEIGER

@<TRIPOS>ATOM
      1 C          -2.2165    2.8244   -6.1148 C.ar    1  LIG111     -0.0547
      2 C           0.6809   12.6959   -0.5861 C.3     1  LIG111      0.0119
      3 C          -1.0594    2.1047   -5.7732 C.ar    1  LIG111     -0.0162
      4 C           1.1112   13.5001    0.6712 C.3     1  LIG111     -0.0374
      5 C          -0.6755    1.9256   -4.4361 C.ar    1  LIG111      0.1588
      6 C          -1.5075    2.4514   -3.4454 C.ar    1  LIG111      0.1668
      7 C          -2.6698    3.0982   -3.8056 C.ar    1  LIG111      0.0137
      8 C          -3.0282    3.3782   -5.1171 C.ar    1  LIG111     -0.0411
      9 C          -4.2435    4.2806   -5.3664 C.3     1  LIG111     -0.0368
     10 C           1.2504   15.0170    0.3665 C.3     1  LIG111     -0.0516
     11 C           1.6575   15.8119    1.6377 C.3     1  LIG111     -0.0530
     12 C          -4.9975    4.6950   -4.0496 C.3     1  LIG111     -0.0432
     13 C           1.8051   17.3291    1.3394 C.3     1  LIG111     -0.0533
     14 C          -4.0278    4.8623   -2.8292 C.3     1  LIG111      0.0720
     15 C          -2.9373    5.9447   -3.0986 C.3     1  LIG111      0.0031
     16 C           2.1942   18.1208    2.6179 C.3     1  LIG111     -0.0559
     17 C           2.3445   19.6359    2.3229 C.3     1  LIG111     -0.0653
     18 C          -1.8681    5.8472   -2.0206 C.ar    1  LIG111     -0.0128
     19 C          -1.5468    4.6720   -1.3417 C.ar    1  LIG111      0.0622
     20 C          -2.2321    3.3242   -1.5388 C.3     1  LIG111      0.1523
     21 H          -2.4830    2.9588   -7.1579 H       1  LIG111      0.0622
     22 C          -3.4148    3.4611   -2.5585 C.3     1  LIG111      0.0677
     23 C          -4.5120    2.4041   -2.2696 C.3     1  LIG111     -0.0518
     24 H           1.4299   12.8446   -1.3809 H       1  LIG111      0.0462
     25 H          -0.2880   13.0818   -0.9433 H       1  LIG111      0.0462
     26 C          -5.5926    2.3925   -3.3816 C.3     1  LIG111     -0.0891
     27 H          -0.4447    1.6791   -6.5596 H       1  LIG111      0.0655
     28 H           2.0765   13.1092    1.0330 H       1  LIG111      0.0280
     29 N          -6.0998    3.7627   -3.6588 N.4     1  LIG111      0.3839
     30 C          -7.2898    3.7362   -4.5596 C.3     1  LIG111     -0.0872
     31 H           0.3586   13.3525    1.4633 H       1  LIG111      0.0280
     32 H          -4.9014    3.7828   -6.0892 H       1  LIG111      0.0298
     33 C          -7.8992    5.1458   -4.7841 C.3     1  LIG111     -0.0559
     34 H          -3.8489    5.1802   -5.8649 H       1  LIG111      0.0298
     35 C          -8.9052    5.2491   -5.9522 C.3     1  LIG111     -0.0517
     36 H           0.2893   15.4028   -0.0112 H       1  LIG111      0.0266
     37 H           2.0130   15.1630   -0.4160 H       1  LIG111      0.0266
     38 C          -7.5065    5.8901   -6.0798 C.3     1  LIG111     -0.0517
     39 H           2.6151   15.4219    2.0203 H       1  LIG111      0.0265
     40 H           0.8903   15.6683    2.4163 H       1  LIG111      0.0265
     41 O          -1.2632    2.3803   -2.0804 O.3     1  LIG111     -0.4778
     42 N          -0.5433    4.9096   -0.4728 N.ar    1  LIG111     -0.3548
     43 H          -5.4355    5.6919   -4.2255 H       1  LIG111      0.0126
     44 C          -0.2235    6.2143   -0.5590 C.ar    1  LIG111      0.0471
     45 C           0.7491    6.9128    0.1540 C.ar    1  LIG111     -0.0371
     46 H           0.8512   17.7187    0.9474 H       1  LIG111      0.0265
     47 C           0.8900    8.2785   -0.1225 C.ar    1  LIG111     -0.0477
     48 H           2.5807   17.4755    0.5697 H       1  LIG111      0.0265
     49 C           0.0601    8.9289   -1.0524 C.ar    1  LIG111      0.0374
     50 C          -0.8942    8.1997   -1.7779 C.ar    1  LIG111     -0.0402
     51 H          -3.3806    6.9517   -3.1088 H       1  LIG111      0.0341
     52 C          -1.0257    6.8378   -1.5067 C.ar    1  LIG111      0.0040
     53 C           0.1756   10.4202   -1.2987 C.2     1  LIG111      0.2441
     54 N           0.5547   11.2656   -0.3105 N.am    1  LIG111     -0.3113
     55 H          -2.4060    5.7942   -4.0479 H       1  LIG111      0.0341
     56 H           3.1480   17.7353    3.0150 H       1  LIG111      0.0263
     57 H           1.4180   17.9809    3.3887 H       1  LIG111      0.0263
     58 H           2.6172   20.1757    3.2436 H       1  LIG111      0.0230
     59 H           1.3975   20.0491    1.9422 H       1  LIG111      0.0230
     60 H           3.1319   19.8046    1.5718 H       1  LIG111      0.0230
     61 H          -2.5675    2.9999   -0.5419 H       1  LIG111      0.0809
     62 H          -4.9866    2.6483   -1.3054 H       1  LIG111      0.0258
     63 H          -4.0616    1.4012   -2.1809 H       1  LIG111      0.0258
     64 H          -6.4083    1.7282   -3.0467 H       1  LIG111      0.0059
     65 H          -5.1754    1.9471   -4.2984 H       1  LIG111      0.0059
     66 H          -6.4944    4.1339   -2.7169 H       1  LIG111     -0.0813
     67 H          -8.0992    3.1437   -4.0996 H       1  LIG111      0.0062
     68 H          -7.0586    3.2489   -5.5181 H       1  LIG111      0.0062
     69 H          -8.1573    5.7703   -3.9136 H       1  LIG111      0.0283
     70 H          -9.7465    5.9504   -5.8372 H       1  LIG111      0.0267
     71 H          -9.0851    4.3535   -6.5671 H       1  LIG111      0.0267
     72 H          -7.4623    6.9889   -6.0240 H       1  LIG111      0.0267
     73 H          -6.8076    5.4002   -6.7744 H       1  LIG111      0.0267
     74 H          -0.1035    4.2157    0.1496 H       1  LIG111      0.1657
     75 H           1.3709    6.4139    0.8899 H       1  LIG111      0.0638
     76 H           1.6693    8.8267    0.3946 H       1  LIG111      0.0626
     77 H          -1.5205    8.6730   -2.5261 H       1  LIG111      0.0632
     78 O          -0.0947   10.8294   -2.4171 O.2     1  LIG111     -0.2702
     79 O          -4.7610    5.2219   -1.6438 O.3     1  LIG111     -0.3888
     80 H           0.7263   10.9426    0.6208 H       1  LIG111      0.1490
     81 O           0.5000    1.2426   -4.1186 O.3     1  LIG111     -0.5033
     82 H          -5.2006    6.0625   -1.7154 H       1  LIG111      0.2101
     83 H           0.6526    1.1890   -3.1813 H       1  LIG111      0.2923
@<TRIPOS>BOND
     1    21     1    1
     2    73    38    1
     3    71    35    1
     4    27     3    1
     5     1     3   ar
     6     1     8   ar
     7    32     9    1
     8    38    72    1
     9    38    35    1
    10    38    33    1
    11    35    70    1
    12    35    33    1
    13    34     9    1
    14     3     5   ar
    15    68    30    1
    16     9     8    1
    17     9    12    1
    18     8     7   ar
    19    33    30    1
    20    33    69    1
    21    30    67    1
    22    30    29    1
    23     5    81    1
    24     5     6   ar
    25    65    26    1
    26    43    12    1
    27    81    83    1
    28    12    29    1
    29    12    14    1
    30    55    15    1
    31     7     6   ar
    32     7    22    1
    33    29    26    1
    34    29    66    1
    35     6    41    1
    36    26    64    1
    37    26    23    1
    38    51    15    1
    39    15    14    1
    40    15    18    1
    41    14    22    1
    42    14    79    1
    43    22    23    1
    44    22    20    1
    45    77    50    1
    46    78    53    2
    47    23    63    1
    48    23    62    1
    49    41    20    1
    50    18    52   ar
    51    18    19   ar
    52    50    52   ar
    53    50    49   ar
    54    82    79    1
    55    20    19    1
    56    20    61    1
    57    52    44   ar
    58    24     2    1
    59    19    42   ar
    60    53    49    1
    61    53    54   am
    62    49    47   ar
    63    25     2    1
    64     2    54    1
    65     2     4    1
    66    44    42   ar
    67    44    45   ar
    68    42    74    1
    69    37    10    1
    70    54    80    1
    71    47    45   ar
    72    47    76    1
    73    36    10    1
    74    45    75    1
    75    10     4    1
    76    10    11    1
    77    48    13    1
    78     4    28    1
    79     4    31    1
    80    46    13    1
    81    13    11    1
    82    13    16    1
    83    60    17    1
    84    11    39    1
    85    11    40    1
    86    59    17    1
    87    17    16    1
    88    17    58    1
    89    16    56    1
    90    16    57    1
