@<TRIPOS>MOLECULE
MOLECULE_08
 81 89 0 0 0
SMALL
GASTEIGER

@<TRIPOS>ATOM
      1 C          -2.2159    2.8234   -6.1153 C.ar    1  LIG111     -0.0547
      2 H           0.7753   16.8221   -4.5571 H       1  LIG111      0.0636
      3 C          -1.0573    2.1063   -5.7732 C.ar    1  LIG111     -0.0162
      4 H          -2.4822    2.9574   -7.1586 H       1  LIG111      0.0622
      5 C          -0.6744    1.9270   -4.4360 C.ar    1  LIG111      0.1588
      6 C          -1.5078    2.4512   -3.4456 C.ar    1  LIG111      0.1668
      7 C          -2.6702    3.0973   -3.8063 C.ar    1  LIG111      0.0137
      8 C          -3.0292    3.3756   -5.1182 C.ar    1  LIG111     -0.0411
      9 C          -4.2466    4.2749   -5.3689 C.3     1  LIG111     -0.0368
     10 N           2.2062   18.4056   -2.9471 N.pl3   1  LIG111     -0.3580
     11 H          -0.4409    1.6830   -6.5594 H       1  LIG111      0.0655
     12 C          -4.9976    4.6944   -4.0520 C.3     1  LIG111     -0.0432
     13 H          -4.9055    3.7726   -6.0878 H       1  LIG111      0.0298
     14 C          -4.0252    4.8642   -2.8341 C.3     1  LIG111      0.0720
     15 C          -2.9335    5.9431   -3.1123 C.3     1  LIG111      0.0031
     16 H          -3.8550    5.1729   -5.8730 H       1  LIG111      0.0298
     17 H          -5.4343    5.6916   -4.2297 H       1  LIG111      0.0126
     18 C          -1.8565    5.8452   -2.0428 C.ar    1  LIG111     -0.0127
     19 C          -1.5383    4.6752   -1.3541 C.ar    1  LIG111      0.0622
     20 C          -2.2300    3.3286   -1.5402 C.3     1  LIG111      0.1523
     21 H          -3.3747    6.9512   -3.1202 H       1  LIG111      0.0341
     22 C          -3.4139    3.4631   -2.5593 C.3     1  LIG111      0.0677
     23 C          -4.5123    2.4083   -2.2664 C.3     1  LIG111     -0.0518
     24 H          -2.4084    5.7912   -4.0646 H       1  LIG111      0.0341
     25 H          -2.5641    3.0113   -0.5406 H       1  LIG111      0.0809
     26 C          -5.5941    2.3948   -3.3774 C.3     1  LIG111     -0.0891
     27 H          -4.9858    2.6563   -1.3029 H       1  LIG111      0.0258
     28 H          -4.0634    1.4051   -2.1750 H       1  LIG111      0.0258
     29 N          -6.1005    3.7649   -3.6565 N.4     1  LIG111      0.3839
     30 C          -7.2923    3.7383   -4.5550 C.3     1  LIG111     -0.0872
     31 H          -6.4101    1.7321   -3.0405 H       1  LIG111      0.0059
     32 H          -5.1783    1.9472   -4.2938 H       1  LIG111      0.0059
     33 C          -7.8995    5.1486   -4.7808 C.3     1  LIG111     -0.0559
     34 H          -6.4925    4.1390   -2.7147 H       1  LIG111     -0.0813
     35 C          -8.9052    5.2534   -5.9490 C.3     1  LIG111     -0.0517
     36 H          -8.1016    3.1481   -4.0921 H       1  LIG111      0.0062
     37 H          -7.0638    3.2488   -5.5130 H       1  LIG111      0.0062
     38 C          -7.5049    5.8909   -6.0771 C.3     1  LIG111     -0.0517
     39 H          -8.1556    5.7748   -3.9109 H       1  LIG111      0.0283
     40 H          -9.7450    5.9565   -5.8336 H       1  LIG111      0.0267
     41 O          -1.2647    2.3799   -2.0802 O.3     1  LIG111     -0.4778
     42 N          -0.5310    4.9167   -0.4901 N.ar    1  LIG111     -0.3548
     43 H          -9.0878    4.3571   -6.5619 H       1  LIG111      0.0267
     44 C          -0.2016    6.2185   -0.5926 C.ar    1  LIG111      0.0472
     45 C           0.7751    6.9200    0.1133 C.ar    1  LIG111     -0.0345
     46 H          -7.4564    6.9894   -6.0206 H       1  LIG111      0.0267
     47 C           0.9172    8.2832   -0.1748 C.ar    1  LIG111     -0.0212
     48 H          -6.8061    5.3985   -6.7700 H       1  LIG111      0.0267
     49 C           0.1177    8.9105   -1.1445 C.ar    1  LIG111      0.1005
     50 C          -0.8569    8.1887   -1.8464 C.ar    1  LIG111     -0.0138
     51 H          -0.0966    4.2272    0.1412 H       1  LIG111      0.1657
     52 C          -1.0016    6.8343   -1.5481 C.ar    1  LIG111      0.0066
     53 N           0.2744   10.2319   -1.3989 N.pl3   1  LIG111     -0.2463
     54 H           1.3956    6.4276    0.8542 H       1  LIG111      0.0639
     55 C           1.3472   10.7345   -1.9774 C.cat   1  LIG111      0.3483
     56 N           1.4877   12.0321   -2.1756 N.pl3   1  LIG111     -0.2742
     57 H           1.6586    8.8657    0.3626 H       1  LIG111      0.0653
     58 C           0.4952   13.0323   -1.7761 C.3     1  LIG111      0.0899
     59 H          -1.4768    8.6662   -2.5971 H       1  LIG111      0.0659
     60 H          -0.5041   10.8392   -1.1145 H       1  LIG111      0.2647
     61 C           0.9816   14.4522   -2.1114 C.ar    1  LIG111     -0.0140
     62 C           1.7670   15.1620   -1.1958 C.ar    1  LIG111     -0.0538
     63 H           2.3429   12.3847   -2.6349 H       1  LIG111      0.2581
     64 C           2.1760   16.4685   -1.4784 C.ar    1  LIG111     -0.0407
     65 H           0.3164   12.9818   -0.6901 H       1  LIG111      0.0706
     66 C           1.8084   17.0748   -2.6820 C.ar    1  LIG111      0.0246
     67 C           1.0499   16.3595   -3.6140 C.ar    1  LIG111     -0.0407
     68 H          -0.4559   12.8569   -2.3032 H       1  LIG111      0.0706
     69 C           0.6458   15.0512   -3.3314 C.ar    1  LIG111     -0.0538
     70 H           2.0640   14.7016   -0.2593 H       1  LIG111      0.0622
     71 H           2.7802   17.0170   -0.7635 H       1  LIG111      0.0636
     72 H           1.3386   19.0445   -3.0359 H       1  LIG111      0.1423
     73 N           2.3188    9.9461   -2.3865 N.pl3   1  LIG111     -0.2914
     74 H           0.0686   14.5021   -4.0674 H       1  LIG111      0.0622
     75 O          -4.7546    5.2299   -1.6485 O.3     1  LIG111     -0.3888
     76 H           2.2646    8.9234   -2.2895 H       1  LIG111      0.2546
     77 O           0.5018    1.2456   -4.1178 O.3     1  LIG111     -0.5033
     78 H           3.1642   10.3295   -2.8357 H       1  LIG111      0.2546
     79 H          -5.1936    6.0706   -1.7228 H       1  LIG111      0.2101
     80 H           0.6560    1.1955   -3.1806 H       1  LIG111      0.2923
     81 H           2.7900   18.4477   -3.8557 H       1  LIG111      0.1423
@<TRIPOS>BOND
     1     4     1    1
     2    48    38    1
     3    43    35    1
     4    11     3    1
     5     1     3   ar
     6     1     8   ar
     7    13     9    1
     8    38    46    1
     9    38    35    1
    10    38    33    1
    11    35    40    1
    12    35    33    1
    13    16     9    1
    14     3     5   ar
    15    37    30    1
    16     9     8    1
    17     9    12    1
    18     8     7   ar
    19    33    30    1
    20    33    39    1
    21     2    67    1
    22    30    36    1
    23    30    29    1
    24     5    77    1
    25     5     6   ar
    26    32    26    1
    27    17    12    1
    28    77    80    1
    29    74    69    1
    30    24    15    1
    31    12    29    1
    32    12    14    1
    33    81    10    1
    34     7     6   ar
    35     7    22    1
    36    29    26    1
    37    29    34    1
    38    67    69   ar
    39    67    66   ar
    40     6    41    1
    41    26    31    1
    42    26    23    1
    43    69    61   ar
    44    21    15    1
    45    15    14    1
    46    15    18    1
    47    72    10    1
    48    10    66    1
    49    78    73    1
    50    14    22    1
    51    14    75    1
    52    66    64   ar
    53    63    56    1
    54    59    50    1
    55    22    23    1
    56    22    20    1
    57    73    76    1
    58    73    55    2
    59    68    58    1
    60    23    28    1
    61    23    27    1
    62    56    55    1
    63    56    58    1
    64    61    58    1
    65    61    62   ar
    66    41    20    1
    67    18    52   ar
    68    18    19   ar
    69    55    53    1
    70    50    52   ar
    71    50    49   ar
    72    58    65    1
    73    79    75    1
    74    52    44   ar
    75    20    19    1
    76    20    25    1
    77    64    62   ar
    78    64    71    1
    79    53    49    1
    80    53    60    1
    81    19    42   ar
    82    62    70    1
    83    49    47   ar
    84    44    42   ar
    85    44    45   ar
    86    42    51    1
    87    47    45   ar
    88    47    57    1
    89    45    54    1
