@<TRIPOS>MOLECULE
MOLECULE_36
 58 65 0 0 0
SMALL
GASTEIGER

@<TRIPOS>ATOM
      1 C          -2.2154    2.8218   -6.1159 C.ar    1  LIG111     -0.0547
      2 H          -2.4817    2.9548   -7.1594 H       1  LIG111      0.0622
      3 C          -1.0554    2.1074   -5.7732 C.ar    1  LIG111     -0.0162
      4 H          -0.4378    1.6849   -6.5590 H       1  LIG111      0.0655
      5 C          -0.6720    1.9299   -4.4357 C.ar    1  LIG111      0.1588
      6 C          -1.5078    2.4512   -3.4458 C.ar    1  LIG111      0.1668
      7 C          -2.6707    3.0963   -3.8072 C.ar    1  LIG111      0.0137
      8 C          -3.0302    3.3726   -5.1193 C.ar    1  LIG111     -0.0411
      9 C          -4.2497    4.2689   -5.3707 C.3     1  LIG111     -0.0368
     10 H          -4.9096    3.7611   -6.0847 H       1  LIG111      0.0298
     11 H          -3.8612    5.1646   -5.8810 H       1  LIG111      0.0298
     12 C          -4.9977    4.6940   -4.0538 C.3     1  LIG111     -0.0432
     13 H          -5.4325    5.6916   -4.2335 H       1  LIG111      0.0126
     14 C          -4.0234    4.8657   -2.8376 C.3     1  LIG111      0.0720
     15 C          -2.9312    5.9429   -3.1205 C.3     1  LIG111      0.0031
     16 H          -3.3698    6.9521   -3.1246 H       1  LIG111      0.0341
     17 H          -2.4121    5.7913   -4.0761 H       1  LIG111      0.0341
     18 C          -1.8473    5.8426   -2.0581 C.ar    1  LIG111     -0.0128
     19 C          -1.5316    4.6743   -1.3652 C.ar    1  LIG111      0.0622
     20 C          -2.2295    3.3303   -1.5420 C.3     1  LIG111      0.1523
     21 H          -2.5630    3.0187   -0.5405 H       1  LIG111      0.0809
     22 C          -3.4138    3.4644   -2.5605 C.3     1  LIG111      0.0677
     23 C          -4.5129    2.4115   -2.2639 C.3     1  LIG111     -0.0518
     24 H          -4.9839    2.6615   -1.2996 H       1  LIG111      0.0258
     25 H          -4.0647    1.4079   -2.1718 H       1  LIG111      0.0258
     26 C          -5.5973    2.3976   -3.3722 C.3     1  LIG111     -0.0891
     27 H          -6.4139    1.7373   -3.0317 H       1  LIG111      0.0059
     28 H          -5.1840    1.9467   -4.2881 H       1  LIG111      0.0059
     29 N          -6.1018    3.7679   -3.6540 N.4     1  LIG111      0.3839
     30 C          -7.2951    3.7411   -4.5505 C.3     1  LIG111     -0.0872
     31 H          -8.1059    3.1561   -4.0833 H       1  LIG111      0.0062
     32 H          -7.0699    3.2458   -5.5062 H       1  LIG111      0.0062
     33 C          -7.8977    5.1523   -4.7834 C.3     1  LIG111     -0.0559
     34 H          -8.1505    5.7842   -3.9167 H       1  LIG111      0.0283
     35 C          -8.9037    5.2550   -5.9516 C.3     1  LIG111     -0.0517
     36 H          -9.7399    5.9630   -5.8412 H       1  LIG111      0.0267
     37 H          -9.0897    4.3570   -6.5610 H       1  LIG111      0.0267
     38 C          -7.5009    5.8860   -6.0839 C.3     1  LIG111     -0.0517
     39 H          -7.4484    6.9847   -6.0340 H       1  LIG111      0.0267
     40 H          -6.8057    5.3872   -6.7759 H       1  LIG111      0.0267
     41 O          -1.2666    2.3784   -2.0802 O.3     1  LIG111     -0.4778
     42 N          -0.5185    4.9142   -0.5078 N.ar    1  LIG111     -0.3548
     43 H          -0.0842    4.2258    0.1245 H       1  LIG111      0.1657
     44 C          -0.1791    6.2122   -0.6216 C.ar    1  LIG111      0.0470
     45 C           0.8106    6.9083    0.0719 C.ar    1  LIG111     -0.0378
     46 H           1.4289    6.4152    0.8144 H       1  LIG111      0.0638
     47 C           0.9693    8.2664   -0.2322 C.ar    1  LIG111     -0.0598
     48 H           1.7287    8.8432    0.2865 H       1  LIG111      0.0618
     49 C           0.1627    8.8915   -1.1957 C.ar    1  LIG111     -0.0611
     50 H           0.3078    9.9455   -1.4117 H       1  LIG111      0.0618
     51 C          -0.8274    8.1795   -1.8850 C.ar    1  LIG111     -0.0523
     52 H          -1.4512    8.6588   -2.6319 H       1  LIG111      0.0624
     53 C          -0.9812    6.8280   -1.5758 C.ar    1  LIG111      0.0033
     54 O          -4.7503    5.2346   -1.6513 O.3     1  LIG111     -0.3888
     55 H          -5.1886    6.0756   -1.7264 H       1  LIG111      0.2101
     56 O           0.5070    1.2536   -4.1171 O.3     1  LIG111     -0.5033
     57 H           0.6653    1.2115   -3.1802 H       1  LIG111      0.2923
     58 H          -6.4916    4.1454   -2.7126 H       1  LIG111     -0.0813
@<TRIPOS>BOND
     1     2     1    1
     2    40    38    1
     3    37    35    1
     4     4     3    1
     5     1     3   ar
     6     1     8   ar
     7    10     9    1
     8    38    39    1
     9    38    35    1
    10    38    33    1
    11    35    36    1
    12    35    33    1
    13    11     9    1
    14     3     5   ar
    15    32    30    1
    16     9     8    1
    17     9    12    1
    18     8     7   ar
    19    33    30    1
    20    33    34    1
    21    30    31    1
    22    30    29    1
    23     5    56    1
    24     5     6   ar
    25    28    26    1
    26    13    12    1
    27    56    57    1
    28    17    15    1
    29    12    29    1
    30    12    14    1
    31     7     6   ar
    32     7    22    1
    33    29    26    1
    34    29    58    1
    35     6    41    1
    36    26    27    1
    37    26    23    1
    38    16    15    1
    39    15    14    1
    40    15    18    1
    41    14    22    1
    42    14    54    1
    43    52    51    1
    44    22    23    1
    45    22    20    1
    46    23    25    1
    47    23    24    1
    48    41    20    1
    49    18    53   ar
    50    18    19   ar
    51    51    53   ar
    52    51    49   ar
    53    55    54    1
    54    53    44   ar
    55    20    19    1
    56    20    21    1
    57    50    49    1
    58    19    42   ar
    59    49    47   ar
    60    44    42   ar
    61    44    45   ar
    62    42    43    1
    63    47    45   ar
    64    47    48    1
    65    45    46    1
