@<TRIPOS>MOLECULE
MOLECULE-44
 75 83 0 0 0
SMALL
GASTEIGER
Energy = 0

@<TRIPOS>ATOM
      1 C          -2.2142    2.8224   -6.1167 C.ar    1  LIG11      -0.0547
      2 H          -2.4794    2.9544   -7.1604 H       1  LIG11       0.0622
      3 C          -1.0553    2.1062   -5.7724 C.ar    1  LIG11      -0.0162
      4 H          -0.4364    1.6843   -6.5575 H       1  LIG11       0.0655
      5 C          -0.6748    1.9256   -4.4346 C.ar    1  LIG11       0.1588
      6 C          -1.5090    2.4519   -3.4461 C.ar    1  LIG11       0.1668
      7 C          -2.6679    3.1026   -3.8094 C.ar    1  LIG11       0.0137
      8 C          -3.0293    3.3754   -5.1215 C.ar    1  LIG11      -0.0411
      9 C          -4.2517    4.2685   -5.3715 C.3     1  LIG11      -0.0368
     10 H          -4.9110    3.7555   -6.0822 H       1  LIG11       0.0298
     11 H          -3.8691    5.1647   -5.8855 H       1  LIG11       0.0298
     12 C          -5.0001    4.6935   -4.0541 C.3     1  LIG11      -0.0432
     13 H          -5.4410    5.6881   -4.2358 H       1  LIG11       0.0126
     14 C          -4.0264    4.8739   -2.8386 C.3     1  LIG11       0.0720
     15 C          -2.9412    5.9557   -3.1238 C.3     1  LIG11       0.0031
     16 H          -3.3818    6.9643   -3.1256 H       1  LIG11       0.0341
     17 H          -2.4322    5.8010   -4.0842 H       1  LIG11       0.0341
     18 C          -1.8429    5.8616   -2.0751 C.ar    1  LIG11      -0.0126
     19 C          -1.5005    4.6934   -1.4002 C.ar    1  LIG11       0.0647
     20 C          -2.2163    3.3525   -1.5524 C.3     1  LIG11       0.1525
     21 H          -2.5717    3.0550   -0.5557 H       1  LIG11       0.0809
     22 C          -3.4068    3.4776   -2.5632 C.3     1  LIG11       0.0677
     23 C          -4.5002    2.4211   -2.2571 C.3     1  LIG11      -0.0518
     24 H          -4.9705    2.6742   -1.2931 H       1  LIG11       0.0258
     25 H          -4.0473    1.4201   -2.1605 H       1  LIG11       0.0258
     26 C          -5.5868    2.3964   -3.3630 C.3     1  LIG11      -0.0891
     27 H          -6.3990    1.7336   -3.0176 H       1  LIG11       0.0059
     28 H          -5.1729    1.9435   -4.2775 H       1  LIG11       0.0059
     29 N          -6.0990    3.7626   -3.6505 N.4     1  LIG11       0.3839
     30 C          -7.2921    3.7248   -4.5471 C.3     1  LIG11      -0.0872
     31 H          -8.0989    3.1362   -4.0779 H       1  LIG11       0.0062
     32 H          -7.0640    3.2273   -5.5010 H       1  LIG11       0.0062
     33 C          -7.9042    5.1309   -4.7860 C.3     1  LIG11      -0.0559
     34 H          -8.1625    5.7642   -3.9220 H       1  LIG11       0.0283
     35 C          -8.9084    5.2225   -5.9567 C.3     1  LIG11      -0.0517
     36 H          -9.7505    5.9242   -5.8500 H       1  LIG11       0.0267
     37 H          -9.0863    4.3214   -6.5641 H       1  LIG11       0.0267
     38 C          -7.5101    5.8636   -6.0880 C.3     1  LIG11      -0.0517
     39 H          -7.4666    6.9629   -6.0419 H       1  LIG11       0.0267
     40 H          -6.8112    5.3681   -6.7786 H       1  LIG11       0.0267
     41 O          -1.2704    2.3788   -2.0803 O.3     1  LIG11      -0.4778
     42 N          -0.4499    4.9403   -0.5901 N.ar    1  LIG11      -0.3423
     43 C           0.2559    3.9548    0.2197 C.3     1  LIG11       0.0481
     44 H           1.0903    4.4188    0.7677 H       1  LIG11       0.0541
     45 H           0.6733    3.1912   -0.4541 H       1  LIG11       0.0541
     46 C          -0.6968    3.3395    1.2498 C.ar    1  LIG11      -0.0278
     47 C          -0.7499    1.9547    1.4469 C.ar    1  LIG11      -0.0569
     48 H          -0.1005    1.2949    0.8809 H       1  LIG11       0.0621
     49 C          -1.6431    1.4095    2.3735 C.ar    1  LIG11      -0.0614
     50 H          -1.6840    0.3345    2.5202 H       1  LIG11       0.0618
     51 C          -2.4841    2.2470    3.1116 C.ar    1  LIG11      -0.0617
     52 H          -3.1787    1.8233    3.8300 H       1  LIG11       0.0618
     53 C          -2.4285    3.6308    2.9235 C.ar    1  LIG11      -0.0614
     54 H          -3.0802    4.2832    3.4964 H       1  LIG11       0.0618
     55 C          -1.5340    4.1746    1.9975 C.ar    1  LIG11      -0.0569
     56 H          -1.4929    5.2504    1.8591 H       1  LIG11       0.0621
     57 C          -0.1383    6.2504   -0.6812 C.ar    1  LIG11       0.0133
     58 H           0.6503    6.7539   -0.1327 H       1  LIG11       0.0815
     59 C          -0.9921    6.8635   -1.6003 C.ar    1  LIG11       0.0033
     60 C          -0.9899    8.2941   -1.9874 C.ar    1  LIG11      -0.0162
     61 C          -1.0082    9.2792   -0.9952 C.ar    1  LIG11      -0.0540
     62 H          -1.0135    8.9956    0.0526 H       1  LIG11       0.0624
     63 C          -1.0228   10.6314   -1.3491 C.ar    1  LIG11      -0.0612
     64 H          -1.0371   11.3945   -0.5768 H       1  LIG11       0.0618
     65 C          -1.0203   11.0012   -2.6972 C.ar    1  LIG11      -0.0617
     66 H          -1.0391   12.0513   -2.9724 H       1  LIG11       0.0618
     67 C          -0.9930   10.0177   -3.6903 C.ar    1  LIG11      -0.0612
     68 H          -0.9891   10.3046   -4.7375 H       1  LIG11       0.0618
     69 C          -0.9692    8.6657   -3.3356 C.ar    1  LIG11      -0.0540
     70 H          -0.9314    7.9073   -4.1107 H       1  LIG11       0.0624
     71 O          -4.7532    5.2409   -1.6518 O.3     1  LIG11      -0.3888
     72 H          -5.1962    6.0795   -1.7277 H       1  LIG11       0.2101
     73 O           0.4993    1.2415   -4.1139 O.3     1  LIG11      -0.5033
     74 H           0.6421    1.1765   -3.1757 H       1  LIG11       0.2923
     75 H          -6.4910    4.1416   -2.7105 H       1  LIG11      -0.0813
@<TRIPOS>BOND
     1     2     1    1
     2    40    38    1
     3    37    35    1
     4     4     3    1
     5     1     3   ar
     6     1     8   ar
     7    38    39    1
     8    38    35    1
     9    38    33    1
    10    10     9    1
    11    35    36    1
    12    35    33    1
    13    11     9    1
    14     3     5   ar
    15    32    30    1
    16     9     8    1
    17     9    12    1
    18     8     7   ar
    19    33    30    1
    20    33    34    1
    21    68    67    1
    22    30    31    1
    23    30    29    1
    24     5    73    1
    25     5     6   ar
    26    28    26    1
    27    13    12    1
    28    73    74    1
    29    70    69    1
    30    17    15    1
    31    12    29    1
    32    12    14    1
    33     7     6   ar
    34     7    22    1
    35    67    69   ar
    36    67    65   ar
    37    29    26    1
    38    29    75    1
    39     6    41    1
    40    26    27    1
    41    26    23    1
    42    69    60   ar
    43    16    15    1
    44    15    14    1
    45    15    18    1
    46    66    65    1
    47    14    22    1
    48    14    71    1
    49    65    63   ar
    50    22    23    1
    51    22    20    1
    52    23    25    1
    53    23    24    1
    54    41    20    1
    55    18    59   ar
    56    18    19   ar
    57    60    59    1
    58    60    61   ar
    59    72    71    1
    60    59    57   ar
    61    20    19    1
    62    20    21    1
    63    19    42   ar
    64    63    61   ar
    65    63    64    1
    66    61    62    1
    67    57    42   ar
    68    57    58    1
    69    42    43    1
    70    45    43    1
    71    43    44    1
    72    43    46    1
    73    48    47    1
    74    46    47   ar
    75    46    55   ar
    76    47    49   ar
    77    56    55    1
    78    55    53   ar
    79    49    50    1
    80    49    51   ar
    81    53    51   ar
    82    53    54    1
    83    51    52    1
