@<TRIPOS>MOLECULE
MOLECULE-21
 75 82 0 0 0
SMALL
GASTEIGER
Energy = 0

@<TRIPOS>ATOM
      1 C          -2.2157    2.8222   -6.1156 C.ar    1  LIG11      -0.0547
      2 C           4.8230   12.2818   -0.2847 C.3     1  LIG11      -0.0543
      3 C          -1.0557    2.1075   -5.7732 C.ar    1  LIG11      -0.0162
      4 H          -2.4825    2.9551   -7.1588 H       1  LIG11       0.0622
      5 C          -0.6726    1.9289   -4.4359 C.ar    1  LIG11       0.1588
      6 C          -1.5077    2.4511   -3.4458 C.ar    1  LIG11       0.1668
      7 C          -2.6707    3.0962   -3.8068 C.ar    1  LIG11       0.0137
      8 C          -3.0299    3.3734   -5.1187 C.ar    1  LIG11      -0.0411
      9 C          -4.2484    4.2712   -5.3698 C.3     1  LIG11      -0.0368
     10 H           4.6481   13.3326   -0.0021 H       1  LIG11       0.0235
     11 H           5.8095   12.2300   -0.7715 H       1  LIG11       0.0235
     12 C          -4.9978    4.6943   -4.0532 C.3     1  LIG11      -0.0432
     13 H           4.8364   11.6767    0.6356 H       1  LIG11       0.0235
     14 C          -4.0242    4.8647   -2.8364 C.3     1  LIG11       0.0720
     15 C          -2.9313    5.9423   -3.1164 C.3     1  LIG11       0.0031
     16 H          -0.4381    1.6853   -6.5592 H       1  LIG11       0.0655
     17 H          -4.9081    3.7663   -6.0861 H       1  LIG11       0.0298
     18 C          -1.8524    5.8427   -2.0487 C.ar    1  LIG11      -0.0128
     19 C          -1.5380    4.6729   -1.3577 C.ar    1  LIG11       0.0622
     20 C          -2.2314    3.3275   -1.5413 C.3     1  LIG11       0.1523
     21 H          -3.8578    5.1678   -5.8769 H       1  LIG11       0.0298
     22 C          -3.4149    3.4628   -2.5604 C.3     1  LIG11       0.0677
     23 C          -4.5139    2.4093   -2.2661 C.3     1  LIG11      -0.0518
     24 H          -5.4332    5.6918   -4.2324 H       1  LIG11       0.0126
     25 H          -3.3704    6.9512   -3.1230 H       1  LIG11       0.0341
     26 C          -5.5975    2.3967   -3.3752 C.3     1  LIG11      -0.0891
     27 H          -2.4085    5.7899   -4.0700 H       1  LIG11       0.0341
     28 H          -2.5654    3.0113   -0.5414 H       1  LIG11       0.0809
     29 N          -6.1019    3.7673   -3.6550 N.4     1  LIG11       0.3839
     30 C          -7.2949    3.7412   -4.5518 C.3     1  LIG11      -0.0872
     31 H          -4.9858    2.6580   -1.3018 H       1  LIG11       0.0258
     32 H          -4.0660    1.4056   -2.1751 H       1  LIG11       0.0258
     33 C          -7.9003    5.1518   -4.7807 C.3     1  LIG11      -0.0559
     34 H          -6.4141    1.7357   -3.0362 H       1  LIG11       0.0059
     35 C          -8.9085    5.2534   -5.9470 C.3     1  LIG11      -0.0517
     36 H          -5.1836    1.9474   -4.2916 H       1  LIG11       0.0059
     37 H          -6.4922    4.1434   -2.7131 H       1  LIG11      -0.0813
     38 C          -7.5079    5.8891   -6.0804 C.3     1  LIG11      -0.0517
     39 H          -8.1048    3.1534   -4.0867 H       1  LIG11       0.0062
     40 H          -7.0682    3.2491   -5.5088 H       1  LIG11       0.0062
     41 O          -1.2657    2.3790   -2.0803 O.3     1  LIG11      -0.4778
     42 N          -0.5307    4.9125   -0.4937 N.ar    1  LIG11      -0.3548
     43 H          -8.1542    5.7809   -3.9123 H       1  LIG11       0.0283
     44 C          -0.1954    6.2119   -0.6010 C.ar    1  LIG11       0.0470
     45 C           0.7860    6.9095    0.1014 C.ar    1  LIG11      -0.0375
     46 H          -9.7469    5.9584   -5.8337 H       1  LIG11       0.0267
     47 C           0.9410    8.2687   -0.1971 C.ar    1  LIG11      -0.0565
     48 H          -9.0926    4.3562   -6.5582 H       1  LIG11       0.0267
     49 C           0.1417    8.9019   -1.1639 C.ar    1  LIG11      -0.0431
     50 C          -0.8381    8.1815   -1.8623 C.ar    1  LIG11      -0.0490
     51 H          -7.4591    6.9878   -6.0290 H       1  LIG11       0.0267
     52 C          -0.9917    6.8290   -1.5582 C.ar    1  LIG11       0.0036
     53 C           0.3472   10.3941   -1.4609 C.3     1  LIG11       0.0084
     54 H          -6.8116    5.3935   -6.7737 H       1  LIG11       0.0267
     55 H          -0.0984    4.2235    0.1393 H       1  LIG11       0.1657
     56 C           1.4113   10.5574   -2.5770 C.3     1  LIG11       0.0818
     57 H           1.4013    6.4162    0.8463 H       1  LIG11       0.0638
     58 H           1.6992    8.8367    0.3326 H       1  LIG11       0.0621
     59 N           2.6280    9.8134   -2.2332 N.pl3   1  LIG11      -0.2376
     60 H          -1.4580    8.6525   -2.6171 H       1  LIG11       0.0627
     61 C           3.6810   10.3228   -1.6389 C.2     1  LIG11       0.2778
     62 N           4.6977    9.5869   -1.4060 N.2     1  LIG11      -0.1040
     63 H           0.6651   10.9053   -0.5403 H       1  LIG11       0.0350
     64 C           3.6972   11.7940   -1.2380 C.3     1  LIG11       0.0473
     65 H          -0.6029   10.8540   -1.7782 H       1  LIG11       0.0350
     66 H           1.5823   11.6216   -2.7976 H       1  LIG11       0.0727
     67 O          -4.7525    5.2326   -1.6506 O.3     1  LIG11      -0.3888
     68 H           0.9972   10.1158   -3.4995 H       1  LIG11       0.0727
     69 O           0.5053    1.2503   -4.1177 O.3     1  LIG11      -0.5033
     70 H           2.6709    8.8168   -2.5065 H       1  LIG11       0.2910
     71 H           5.5387    9.9155   -0.9639 H       1  LIG11       0.3629
     72 H           2.7555   12.0335   -0.7226 H       1  LIG11       0.0384
     73 H           3.7599   12.3998   -2.1563 H       1  LIG11       0.0384
     74 H          -5.1900    6.0741   -1.7256 H       1  LIG11       0.2101
     75 H           0.6550    1.1921   -3.1802 H       1  LIG11       0.2923
@<TRIPOS>BOND
     1     4     1    1
     2    54    38    1
     3    16     3    1
     4    48    35    1
     5     1     3   ar
     6     1     8   ar
     7    17     9    1
     8    38    51    1
     9    38    35    1
    10    38    33    1
    11    35    46    1
    12    35    33    1
    13    21     9    1
    14     3     5   ar
    15    40    30    1
    16     9     8    1
    17     9    12    1
    18     8     7   ar
    19    33    30    1
    20    33    43    1
    21    30    39    1
    22    30    29    1
    23     5    69    1
    24     5     6   ar
    25    36    26    1
    26    24    12    1
    27    69    75    1
    28    27    15    1
    29    12    29    1
    30    12    14    1
    31     7     6   ar
    32     7    22    1
    33    29    26    1
    34    29    37    1
    35    68    56    1
    36     6    41    1
    37    26    34    1
    38    26    23    1
    39    25    15    1
    40    15    14    1
    41    15    18    1
    42    14    22    1
    43    14    67    1
    44    66    56    1
    45    60    50    1
    46    56    59    1
    47    56    53    1
    48    22    23    1
    49    22    20    1
    50    70    59    1
    51    23    32    1
    52    23    31    1
    53    59    61    1
    54    73    64    1
    55    41    20    1
    56    18    52   ar
    57    18    19   ar
    58    50    52   ar
    59    50    49   ar
    60    65    53    1
    61    74    67    1
    62    61    62    2
    63    61    64    1
    64    52    44   ar
    65    20    19    1
    66    20    28    1
    67    53    49    1
    68    53    63    1
    69    62    71    1
    70    19    42   ar
    71    64    72    1
    72    64     2    1
    73    49    47   ar
    74    11     2    1
    75    44    42   ar
    76    44    45   ar
    77    42    55    1
    78     2    10    1
    79     2    13    1
    80    47    45   ar
    81    47    58    1
    82    45    57    1
