@<TRIPOS>MOLECULE
MOLECULE_22
 78 85 0 0 0
SMALL
GASTEIGER

@<TRIPOS>ATOM
      1 C          -2.2143    2.8238   -6.1162 C.ar    1  LIG111     -0.0547
      2 C           4.8605   12.2491   -0.3231 C.3     1  LIG111     -0.0450
      3 C          -1.0556    2.1072   -5.7731 C.ar    1  LIG111     -0.0162
      4 C           4.6630   13.7354    0.0794 C.3     1  LIG111     -0.0647
      5 C          -0.6740    1.9270   -4.4355 C.ar    1  LIG111      0.1588
      6 C          -1.5084    2.4510   -3.4457 C.ar    1  LIG111      0.1668
      7 C          -2.6708    3.0964   -3.8075 C.ar    1  LIG111      0.0137
      8 C          -3.0299    3.3735   -5.1195 C.ar    1  LIG111     -0.0411
      9 C          -4.2495    4.2698   -5.3709 C.3     1  LIG111     -0.0368
     10 H          -2.4786    2.9594   -7.1597 H       1  LIG111      0.0622
     11 H           5.8424   12.1645   -0.8183 H       1  LIG111      0.0268
     12 C          -4.9979    4.6937   -4.0540 C.3     1  LIG111     -0.0432
     13 H           4.8656   11.6347    0.5930 H       1  LIG111      0.0268
     14 C          -4.0230    4.8655   -2.8385 C.3     1  LIG111      0.0720
     15 C          -2.9296    5.9416   -3.1225 C.3     1  LIG111      0.0031
     16 H          -0.4378    1.6849   -6.5589 H       1  LIG111      0.0655
     17 H           5.4828   14.0616    0.7391 H       1  LIG111      0.0230
     18 C          -1.8507    5.8436   -2.0549 C.ar    1  LIG111     -0.0128
     19 C          -1.5382    4.6761   -1.3590 C.ar    1  LIG111      0.0622
     20 C          -2.2309    3.3301   -1.5413 C.3     1  LIG111      0.1523
     21 H           3.7112   13.8699    0.6167 H       1  LIG111      0.0230
     22 C          -3.4141    3.4640   -2.5609 C.3     1  LIG111      0.0677
     23 C          -4.5121    2.4099   -2.2649 C.3     1  LIG111     -0.0518
     24 H           4.6574   14.3778   -0.8151 H       1  LIG111      0.0230
     25 H          -4.9096    3.7629   -6.0853 H       1  LIG111      0.0298
     26 C          -5.5959    2.3959   -3.3736 C.3     1  LIG111     -0.0891
     27 H          -3.8611    5.1664   -5.8797 H       1  LIG111      0.0298
     28 H          -5.4338    5.6910   -4.2331 H       1  LIG111      0.0126
     29 N          -6.1009    3.7662   -3.6537 N.4     1  LIG111      0.3839
     30 C          -7.2952    3.7389   -4.5486 C.3     1  LIG111     -0.0872
     31 H          -3.3680    6.9509   -3.1311 H       1  LIG111      0.0341
     32 H          -2.4072    5.7873   -4.0759 H       1  LIG111      0.0341
     33 C          -7.8991    5.1499   -4.7786 C.3     1  LIG111     -0.0559
     34 H          -2.5651    3.0151   -0.5410 H       1  LIG111      0.0809
     35 C          -8.9089    5.2530   -5.9434 C.3     1  LIG111     -0.0517
     36 H          -4.9836    2.6593   -1.3006 H       1  LIG111      0.0258
     37 H          -4.0631    1.4067   -2.1733 H       1  LIG111      0.0258
     38 C          -7.5065    5.8839   -6.0802 C.3     1  LIG111     -0.0517
     39 H          -6.4119    1.7344   -3.0339 H       1  LIG111      0.0059
     40 H          -5.1819    1.9463   -4.2898 H       1  LIG111      0.0059
     41 O          -1.2660    2.3805   -2.0801 O.3     1  LIG111     -0.4778
     42 N          -0.5340    4.9190   -0.4923 N.ar    1  LIG111     -0.3548
     43 H          -6.4900    4.1428   -2.7116 H       1  LIG111     -0.0813
     44 C          -0.1974    6.2178   -0.6041 C.ar    1  LIG111      0.0470
     45 C           0.7801    6.9191    0.1000 C.ar    1  LIG111     -0.0375
     46 H          -8.1049    3.1525   -4.0814 H       1  LIG111      0.0062
     47 C           0.9399    8.2757   -0.2077 C.ar    1  LIG111     -0.0565
     48 H          -7.0701    3.2451   -5.5052 H       1  LIG111      0.0062
     49 C           0.1503    8.9026   -1.1867 C.ar    1  LIG111     -0.0431
     50 C          -0.8294    8.1799   -1.8827 C.ar    1  LIG111     -0.0490
     51 H          -8.1494    5.7813   -3.9108 H       1  LIG111      0.0283
     52 C          -0.9884    6.8304   -1.5686 C.ar    1  LIG111      0.0036
     53 C           0.3669   10.3896   -1.5006 C.3     1  LIG111      0.0084
     54 H          -9.7450    5.9605   -5.8292 H       1  LIG111      0.0267
     55 H          -9.0975    4.3543   -6.5511 H       1  LIG111      0.0267
     56 C           1.4396   10.5308   -2.6117 C.3     1  LIG111      0.0818
     57 H          -7.4534    6.9825   -6.0298 H       1  LIG111      0.0267
     58 H          -6.8135    5.3852   -6.7744 H       1  LIG111      0.0267
     59 N           2.6470    9.7783   -2.2532 N.pl3   1  LIG111     -0.2375
     60 H          -0.1038    4.2324    0.1448 H       1  LIG111      0.1657
     61 C           3.7029   10.2826   -1.6597 C.2     1  LIG111      0.2781
     62 N           4.7097    9.5372   -1.4143 N.2     1  LIG111     -0.1040
     63 H           1.3889    6.4307    0.8534 H       1  LIG111      0.0638
     64 C           3.7323   11.7584   -1.2756 C.3     1  LIG111      0.0498
     65 H           1.6945    8.8467    0.3240 H       1  LIG111      0.0621
     66 H          -1.4450    8.6466   -2.6437 H       1  LIG111      0.0627
     67 O          -4.7491    5.2353   -1.6521 O.3     1  LIG111     -0.3888
     68 H           0.6817   10.9105   -0.5845 H       1  LIG111      0.0350
     69 O           0.5019    1.2453   -4.1165 O.3     1  LIG111     -0.5033
     70 H          -0.5781   10.8516   -1.8302 H       1  LIG111      0.0350
     71 H           1.6212   11.5909   -2.8434 H       1  LIG111      0.0727
     72 H           1.0270   10.0830   -3.5319 H       1  LIG111      0.0727
     73 H           2.6805    8.7781   -2.5147 H       1  LIG111      0.2910
     74 H           5.5530    9.8593   -0.9723 H       1  LIG111      0.3629
     75 H           2.7888   12.0057   -0.7692 H       1  LIG111      0.0386
     76 H           3.8017   12.3502   -2.2021 H       1  LIG111      0.0386
     77 H          -5.1858    6.0771   -1.7271 H       1  LIG111      0.2101
     78 H           0.6536    1.1916   -3.1791 H       1  LIG111      0.2923
@<TRIPOS>BOND
     1    10     1    1
     2    58    38    1
     3    16     3    1
     4    55    35    1
     5     1     3   ar
     6     1     8   ar
     7    25     9    1
     8    38    57    1
     9    38    35    1
    10    38    33    1
    11    35    54    1
    12    35    33    1
    13    27     9    1
    14     3     5   ar
    15    48    30    1
    16     9     8    1
    17     9    12    1
    18     8     7   ar
    19    33    30    1
    20    33    51    1
    21    30    46    1
    22    30    29    1
    23     5    69    1
    24     5     6   ar
    25    40    26    1
    26    28    12    1
    27    69    78    1
    28    32    15    1
    29    12    29    1
    30    12    14    1
    31     7     6   ar
    32     7    22    1
    33    29    26    1
    34    29    43    1
    35    72    56    1
    36     6    41    1
    37    26    39    1
    38    26    23    1
    39    31    15    1
    40    15    14    1
    41    15    18    1
    42    71    56    1
    43    14    22    1
    44    14    67    1
    45    66    50    1
    46    56    59    1
    47    56    53    1
    48    22    23    1
    49    22    20    1
    50    73    59    1
    51    23    37    1
    52    23    36    1
    53    59    61    1
    54    76    64    1
    55    41    20    1
    56    18    52   ar
    57    18    19   ar
    58    50    52   ar
    59    50    49   ar
    60    70    53    1
    61    77    67    1
    62    61    62    2
    63    61    64    1
    64    52    44   ar
    65    20    19    1
    66    20    34    1
    67    53    49    1
    68    53    68    1
    69    62    74    1
    70    19    42   ar
    71    64    75    1
    72    64     2    1
    73    49    47   ar
    74    11     2    1
    75    24     4    1
    76    44    42   ar
    77    44    45   ar
    78    42    60    1
    79     2     4    1
    80     2    13    1
    81    47    45   ar
    82    47    65    1
    83     4    21    1
    84     4    17    1
    85    45    63    1
