@<TRIPOS>MOLECULE
MOLECULE_19
 80 87 0 0 0
SMALL
GASTEIGER

@<TRIPOS>ATOM
      1 C          -2.2149    2.8233   -6.1158 C.ar    1  LIG111     -0.0547
      2 C           4.8357   13.7704    0.0864 C.3     1  LIG111     -0.0555
      3 C          -1.0559    2.1073   -5.7731 C.ar    1  LIG111     -0.0162
      4 C           6.0512   14.1468    0.9732 C.3     1  LIG111     -0.0653
      5 C          -0.6737    1.9274   -4.4357 C.ar    1  LIG111      0.1588
      6 C          -1.5080    2.4510   -3.4457 C.ar    1  LIG111      0.1668
      7 C          -2.6708    3.0963   -3.8070 C.ar    1  LIG111      0.0137
      8 C          -3.0297    3.3737   -5.1190 C.ar    1  LIG111     -0.0411
      9 C          -4.2486    4.2711   -5.3701 C.3     1  LIG111     -0.0368
     10 H          -2.4805    2.9578   -7.1593 H       1  LIG111      0.0622
     11 H           3.9072   13.9893    0.6396 H       1  LIG111      0.0263
     12 C          -4.9977    4.6939   -4.0531 C.3     1  LIG111     -0.0432
     13 H           4.8491   14.3914   -0.8248 H       1  LIG111      0.0263
     14 C          -4.0240    4.8643   -2.8364 C.3     1  LIG111      0.0720
     15 C          -2.9308    5.9413   -3.1168 C.3     1  LIG111      0.0031
     16 H          -0.4381    1.6851   -6.5590 H       1  LIG111      0.0655
     17 H           6.0094   15.2148    1.2399 H       1  LIG111      0.0230
     18 C          -1.8546    5.8433   -2.0462 C.ar    1  LIG111     -0.0128
     19 C          -1.5405    4.6741   -1.3539 C.ar    1  LIG111      0.0622
     20 C          -2.2315    3.3278   -1.5405 C.3     1  LIG111      0.1523
     21 H           6.9930   13.9570    0.4350 H       1  LIG111      0.0230
     22 C          -3.4145    3.4627   -2.5603 C.3     1  LIG111      0.0677
     23 C          -4.5132    2.4088   -2.2660 C.3     1  LIG111     -0.0518
     24 H           6.0480   13.5537    1.9010 H       1  LIG111      0.0230
     25 H          -4.9084    3.7658   -6.0862 H       1  LIG111      0.0298
     26 C          -5.5967    2.3958   -3.3751 C.3     1  LIG111     -0.0891
     27 H          -3.8586    5.1678   -5.8774 H       1  LIG111      0.0298
     28 H          -5.4333    5.6913   -4.2320 H       1  LIG111      0.0126
     29 N          -6.1014    3.7664   -3.6546 N.4     1  LIG111      0.3839
     30 C          -7.2950    3.7406   -4.5507 C.3     1  LIG111     -0.0872
     31 H          -3.3701    6.9501   -3.1258 H       1  LIG111      0.0341
     32 H          -2.4061    5.7876   -4.0691 H       1  LIG111      0.0341
     33 C          -7.9000    5.1515   -4.7783 C.3     1  LIG111     -0.0559
     34 H          -2.5657    3.0098   -0.5412 H       1  LIG111      0.0809
     35 C          -8.9094    5.2548   -5.9436 C.3     1  LIG111     -0.0517
     36 H          -4.9851    2.6573   -1.3016 H       1  LIG111      0.0258
     37 H          -4.0646    1.4054   -2.1750 H       1  LIG111      0.0258
     38 C          -7.5083    5.8892   -6.0781 C.3     1  LIG111     -0.0517
     39 H          -6.4130    1.7345   -3.0360 H       1  LIG111      0.0059
     40 H          -5.1828    1.9467   -4.2916 H       1  LIG111      0.0059
     41 O          -1.2654    2.3800   -2.0802 O.3     1  LIG111     -0.4778
     42 N          -0.5371    4.9160   -0.4859 N.ar    1  LIG111     -0.3548
     43 H          -6.4912    4.1421   -2.7125 H       1  LIG111     -0.0813
     44 C          -0.2041    6.2162   -0.5918 C.ar    1  LIG111      0.0470
     45 C           0.7719    6.9169    0.1151 C.ar    1  LIG111     -0.0375
     46 H          -8.1046    3.1528   -4.0853 H       1  LIG111      0.0062
     47 C           0.9254    8.2763   -0.1837 C.ar    1  LIG111     -0.0565
     48 H          -7.0690    3.2490   -5.5082 H       1  LIG111      0.0062
     49 C           0.1306    8.9066   -1.1563 C.ar    1  LIG111     -0.0452
     50 C          -0.8441    8.1832   -1.8587 C.ar    1  LIG111     -0.0491
     51 H          -8.1525    5.7805   -3.9094 H       1  LIG111      0.0283
     52 C          -0.9971    6.8310   -1.5533 C.ar    1  LIG111      0.0036
     53 C           0.3336   10.3983   -1.4562 C.3     1  LIG111     -0.0120
     54 H          -9.7470    5.9605   -5.8290 H       1  LIG111      0.0267
     55 H          -9.0952    4.3576   -6.5543 H       1  LIG111      0.0267
     56 C           1.4011   10.5616   -2.5681 C.3     1  LIG111      0.0156
     57 H          -7.4580    6.9878   -6.0255 H       1  LIG111      0.0267
     58 H          -6.8129    5.3934   -6.7721 H       1  LIG111      0.0267
     59 N           2.6298    9.8567   -2.1930 N.am    1  LIG111     -0.3150
     60 H          -0.1060    4.2280    0.1490 H       1  LIG111      0.1657
     61 C           3.6432   10.4217   -1.5836 C.2     1  LIG111      0.2130
     62 O           4.6366    9.7651   -1.3104 O.2     1  LIG111     -0.2758
     63 C           3.6485   11.8859   -1.1947 C.3     1  LIG111      0.0239
     64 C           4.8661   12.2680   -0.3079 C.3     1  LIG111     -0.0450
     65 H           1.3842    6.4259    0.8640 H       1  LIG111      0.0638
     66 H           1.6786    8.8471    0.3503 H       1  LIG111      0.0621
     67 O          -4.7517    5.2320   -1.6502 O.3     1  LIG111     -0.3888
     68 H          -1.4608    8.6516   -2.6177 H       1  LIG111      0.0627
     69 O           0.5024    1.2460   -4.1170 O.3     1  LIG111     -0.5033
     70 H           0.6501   10.9153   -0.5381 H       1  LIG111      0.0328
     71 H          -0.6165   10.8545   -1.7788 H       1  LIG111      0.0328
     72 H           1.5572   11.6270   -2.7951 H       1  LIG111      0.0465
     73 H           1.0076   10.0993   -3.4893 H       1  LIG111      0.0465
     74 H           2.7104    8.8569   -2.4463 H       1  LIG111      0.1487
     75 H           3.6864   12.4946   -2.1119 H       1  LIG111      0.0358
     76 H           2.7314   12.1311   -0.6394 H       1  LIG111      0.0358
     77 H           5.7998   12.0581   -0.8557 H       1  LIG111      0.0270
     78 H           4.8535   11.6524    0.6069 H       1  LIG111      0.0270
     79 H          -5.1894    6.0734   -1.7246 H       1  LIG111      0.2101
     80 H           0.6515    1.1879   -3.1795 H       1  LIG111      0.2923
@<TRIPOS>BOND
     1    10     1    1
     2    58    38    1
     3    16     3    1
     4    55    35    1
     5     1     3   ar
     6     1     8   ar
     7    25     9    1
     8    38    57    1
     9    38    35    1
    10    38    33    1
    11    35    54    1
    12    35    33    1
    13    27     9    1
    14     3     5   ar
    15    48    30    1
    16     9     8    1
    17     9    12    1
    18     8     7   ar
    19    33    30    1
    20    33    51    1
    21    30    46    1
    22    30    29    1
    23     5    69    1
    24     5     6   ar
    25    40    26    1
    26    28    12    1
    27    69    80    1
    28    32    15    1
    29    12    29    1
    30    12    14    1
    31     7     6   ar
    32     7    22    1
    33    29    26    1
    34    29    43    1
    35    73    56    1
    36     6    41    1
    37    26    39    1
    38    26    23    1
    39    31    15    1
    40    15    14    1
    41    15    18    1
    42    14    22    1
    43    14    67    1
    44    72    56    1
    45    68    50    1
    46    56    59    1
    47    56    53    1
    48    22    23    1
    49    22    20    1
    50    74    59    1
    51    23    37    1
    52    23    36    1
    53    59    61   am
    54    75    63    1
    55    41    20    1
    56    18    52   ar
    57    18    19   ar
    58    50    52   ar
    59    50    49   ar
    60    71    53    1
    61    79    67    1
    62    61    62    2
    63    61    63    1
    64    52    44   ar
    65    20    19    1
    66    20    34    1
    67    53    49    1
    68    53    70    1
    69    19    42   ar
    70    63    76    1
    71    63    64    1
    72    49    47   ar
    73    77    64    1
    74    13     2    1
    75    44    42   ar
    76    44    45   ar
    77    42    60    1
    78    64     2    1
    79    64    78    1
    80    47    45   ar
    81    47    66    1
    82     2    11    1
    83     2     4    1
    84    45    65    1
    85    21     4    1
    86     4    17    1
    87     4    24    1
