@<TRIPOS>MOLECULE
MOLECULE_09
 80 88 0 0 0
SMALL
GASTEIGER

@<TRIPOS>ATOM
      1 C          -2.2157    2.8236   -6.1153 C.ar    1  LIG111     -0.0547
      2 H           0.7695   16.7871   -4.5786 H       1  LIG111      0.0654
      3 C          -1.0574    2.1061   -5.7732 C.ar    1  LIG111     -0.0162
      4 H          -2.4818    2.9577   -7.1586 H       1  LIG111      0.0622
      5 C          -0.6743    1.9268   -4.4359 C.ar    1  LIG111      0.1588
      6 C          -1.5077    2.4512   -3.4456 C.ar    1  LIG111      0.1668
      7 C          -2.6700    3.0975   -3.8065 C.ar    1  LIG111      0.0137
      8 C          -3.0292    3.3756   -5.1182 C.ar    1  LIG111     -0.0411
      9 C          -4.2468    4.2746   -5.3689 C.3     1  LIG111     -0.0368
     10 O           2.2380   18.3733   -2.9698 O.3     1  LIG111     -0.5068
     11 H          -0.4411    1.6824   -6.5594 H       1  LIG111      0.0655
     12 C          -4.9980    4.6942   -4.0521 C.3     1  LIG111     -0.0432
     13 H          -4.9056    3.7718   -6.0874 H       1  LIG111      0.0298
     14 C          -4.0258    4.8641   -2.8341 C.3     1  LIG111      0.0720
     15 C          -2.9350    5.9438   -3.1122 C.3     1  LIG111      0.0031
     16 H          -3.8557    5.1725   -5.8733 H       1  LIG111      0.0298
     17 H          -5.4348    5.6913   -4.2298 H       1  LIG111      0.0126
     18 C          -1.8571    5.8451   -2.0439 C.ar    1  LIG111     -0.0127
     19 C          -1.5371    4.6749   -1.3562 C.ar    1  LIG111      0.0622
     20 C          -2.2297    3.3288   -1.5406 C.3     1  LIG111      0.1523
     21 H          -3.3758    6.9520   -3.1187 H       1  LIG111      0.0341
     22 C          -3.4137    3.4633   -2.5595 C.3     1  LIG111      0.0677
     23 C          -4.5117    2.4081   -2.2668 C.3     1  LIG111     -0.0518
     24 H          -2.4104    5.7929   -4.0650 H       1  LIG111      0.0341
     25 H          -2.5640    3.0123   -0.5409 H       1  LIG111      0.0809
     26 C          -5.5943    2.3948   -3.3770 C.3     1  LIG111     -0.0891
     27 H          -4.9846    2.6554   -1.3026 H       1  LIG111      0.0258
     28 H          -4.0623    1.4050   -2.1761 H       1  LIG111      0.0258
     29 N          -6.1009    3.7648   -3.6564 N.4     1  LIG111      0.3839
     30 C          -7.2927    3.7383   -4.5549 C.3     1  LIG111     -0.0872
     31 H          -6.4101    1.7321   -3.0394 H       1  LIG111      0.0059
     32 H          -5.1789    1.9470   -4.2935 H       1  LIG111      0.0059
     33 C          -7.9001    5.1485   -4.7813 C.3     1  LIG111     -0.0559
     34 H          -6.4930    4.1390   -2.7146 H       1  LIG111     -0.0813
     35 C          -8.9062    5.2522   -5.9493 C.3     1  LIG111     -0.0517
     36 H          -8.1021    3.1481   -4.0921 H       1  LIG111      0.0062
     37 H          -7.0641    3.2487   -5.5128 H       1  LIG111      0.0062
     38 C          -7.5063    5.8903   -6.0780 C.3     1  LIG111     -0.0517
     39 H          -8.1565    5.7749   -3.9117 H       1  LIG111      0.0283
     40 H          -9.7459    5.9556   -5.8356 H       1  LIG111      0.0267
     41 O          -1.2647    2.3798   -2.0802 O.3     1  LIG111     -0.4778
     42 N          -0.5275    4.9160   -0.4949 N.ar    1  LIG111     -0.3548
     43 H          -9.0878    4.3564   -6.5633 H       1  LIG111      0.0267
     44 C          -0.1993    6.2179   -0.5966 C.ar    1  LIG111      0.0472
     45 C           0.7789    6.9190    0.1078 C.ar    1  LIG111     -0.0345
     46 H          -7.4592    6.9890   -6.0229 H       1  LIG111      0.0267
     47 C           0.9198    8.2824   -0.1797 C.ar    1  LIG111     -0.0212
     48 H          -6.8080    5.3980   -6.7716 H       1  LIG111      0.0267
     49 C           0.1169    8.9097   -1.1465 C.ar    1  LIG111      0.1005
     50 C          -0.8595    8.1891   -1.8468 C.ar    1  LIG111     -0.0138
     51 H          -0.0905    4.2266    0.1345 H       1  LIG111      0.1657
     52 C          -1.0020    6.8340   -1.5496 C.ar    1  LIG111      0.0066
     53 N           0.2715   10.2310   -1.3996 N.pl3   1  LIG111     -0.2463
     54 H           1.4012    6.4259    0.8470 H       1  LIG111      0.0639
     55 C           1.3427   10.7348   -1.9794 C.cat   1  LIG111      0.3483
     56 N           1.4807   12.0327   -2.1751 N.pl3   1  LIG111     -0.2742
     57 H           1.6627    8.8649    0.3560 H       1  LIG111      0.0653
     58 C           0.4875   13.0300   -1.7703 C.3     1  LIG111      0.0899
     59 H          -1.4820    8.6677   -2.5946 H       1  LIG111      0.0659
     60 H          -0.5078   10.8364   -1.1138 H       1  LIG111      0.2647
     61 C           0.9722   14.4486   -2.1109 C.ar    1  LIG111     -0.0139
     62 C           1.7603   15.1623   -1.2012 C.ar    1  LIG111     -0.0521
     63 H           2.3341   12.3873   -2.6366 H       1  LIG111      0.2581
     64 C           2.1763   16.4637   -1.4962 C.ar    1  LIG111     -0.0198
     65 H           0.3142   12.9815   -0.6832 H       1  LIG111      0.0706
     66 C           1.8189   17.0650   -2.7060 C.ar    1  LIG111      0.1169
     67 C           1.0495   16.3441   -3.6281 C.ar    1  LIG111     -0.0198
     68 H          -0.4660   12.8537   -2.2933 H       1  LIG111      0.0706
     69 C           0.6337   15.0426   -3.3321 C.ar    1  LIG111     -0.0521
     70 H           2.0541   14.7080   -0.2601 H       1  LIG111      0.0622
     71 H           2.7810   17.0134   -0.7823 H       1  LIG111      0.0654
     72 H           1.9267   18.7257   -3.7961 H       1  LIG111      0.2921
     73 N           2.3147    9.9485   -2.3918 N.pl3   1  LIG111     -0.2914
     74 H           0.0447   14.4935   -4.0600 H       1  LIG111      0.0622
     75 O          -4.7553    5.2289   -1.6481 O.3     1  LIG111     -0.3888
     76 H           2.2624    8.9256   -2.2972 H       1  LIG111      0.2546
     77 O           0.5018    1.2452   -4.1178 O.3     1  LIG111     -0.5033
     78 H           3.1587   10.3344   -2.8416 H       1  LIG111      0.2546
     79 H          -5.1943    6.0696   -1.7217 H       1  LIG111      0.2101
     80 H           0.6561    1.1951   -3.1806 H       1  LIG111      0.2923
@<TRIPOS>BOND
     1     4     1    1
     2    48    38    1
     3    43    35    1
     4    11     3    1
     5     1     3   ar
     6     1     8   ar
     7    13     9    1
     8    38    46    1
     9    38    35    1
    10    38    33    1
    11    35    40    1
    12    35    33    1
    13    16     9    1
    14     3     5   ar
    15    37    30    1
    16     9     8    1
    17     9    12    1
    18     8     7   ar
    19    33    30    1
    20    33    39    1
    21     2    67    1
    22    30    36    1
    23    30    29    1
    24     5    77    1
    25     5     6   ar
    26    32    26    1
    27    17    12    1
    28    77    80    1
    29    24    15    1
    30    74    69    1
    31    12    29    1
    32    12    14    1
    33     7     6   ar
    34     7    22    1
    35    72    10    1
    36    29    26    1
    37    29    34    1
    38    67    69   ar
    39    67    66   ar
    40     6    41    1
    41    26    31    1
    42    26    23    1
    43    69    61   ar
    44    21    15    1
    45    15    14    1
    46    15    18    1
    47    10    66    1
    48    78    73    1
    49    14    22    1
    50    14    75    1
    51    66    64   ar
    52    63    56    1
    53    59    50    1
    54    22    23    1
    55    22    20    1
    56    73    76    1
    57    73    55    2
    58    68    58    1
    59    23    28    1
    60    23    27    1
    61    56    55    1
    62    56    58    1
    63    61    58    1
    64    61    62   ar
    65    41    20    1
    66    18    52   ar
    67    18    19   ar
    68    55    53    1
    69    50    52   ar
    70    50    49   ar
    71    58    65    1
    72    79    75    1
    73    52    44   ar
    74    20    19    1
    75    20    25    1
    76    64    62   ar
    77    64    71    1
    78    53    49    1
    79    53    60    1
    80    19    42   ar
    81    62    70    1
    82    49    47   ar
    83    44    42   ar
    84    44    45   ar
    85    42    51    1
    86    47    45   ar
    87    47    57    1
    88    45    54    1
