@<TRIPOS>MOLECULE
MOLECULE-25
 76 83 0 0 0
SMALL
GASTEIGER
Energy = 0

@<TRIPOS>ATOM
      1 C          -2.2153    2.8254   -6.1152 C.ar    1  LIG11      -0.0547
      2 H          -2.4801    2.9624   -7.1591 H       1  LIG11       0.0622
      3 C          -1.0589    2.1045   -5.7733 C.ar    1  LIG11      -0.0162
      4 H          -0.4437    1.6787   -6.5603 H       1  LIG11       0.0655
      5 C          -0.6760    1.9241   -4.4359 C.ar    1  LIG11       0.1588
      6 C          -1.5074    2.4514   -3.4457 C.ar    1  LIG11       0.1668
      7 C          -2.6689    3.0991   -3.8064 C.ar    1  LIG11       0.0137
      8 C          -3.0280    3.3776   -5.1177 C.ar    1  LIG11      -0.0411
      9 C          -4.2464    4.2768   -5.3677 C.3     1  LIG11      -0.0368
     10 H          -4.9043    3.7740   -6.0868 H       1  LIG11       0.0298
     11 H          -3.8557    5.1756   -5.8705 H       1  LIG11       0.0298
     12 C          -4.9983    4.6939   -4.0508 C.3     1  LIG11      -0.0432
     13 H          -5.4367    5.6904   -4.2269 H       1  LIG11       0.0126
     14 C          -4.0274    4.8642   -2.8314 C.3     1  LIG11       0.0720
     15 C          -2.9395    5.9493   -3.1044 C.3     1  LIG11       0.0031
     16 H          -3.3831    6.9562   -3.1071 H       1  LIG11       0.0341
     17 H          -2.4166    5.8030   -4.0591 H       1  LIG11       0.0341
     18 C          -1.8587    5.8504   -2.0386 C.ar    1  LIG11      -0.0128
     19 C          -1.5340    4.6767   -1.3592 C.ar    1  LIG11       0.0622
     20 C          -2.2286    3.3315   -1.5417 C.3     1  LIG11       0.1523
     21 H          -2.5625    3.0184   -0.5403 H       1  LIG11       0.0809
     22 C          -3.4131    3.4645   -2.5597 C.3     1  LIG11       0.0677
     23 C          -4.5088    2.4064   -2.2683 C.3     1  LIG11      -0.0518
     24 H          -4.9816    2.6511   -1.3036 H       1  LIG11       0.0258
     25 H          -4.0574    1.4041   -2.1804 H       1  LIG11       0.0258
     26 C          -5.5923    2.3927   -3.3777 C.3     1  LIG11      -0.0891
     27 H          -6.4079    1.7293   -3.0393 H       1  LIG11       0.0059
     28 H          -5.1780    1.9450   -4.2950 H       1  LIG11       0.0059
     29 N          -6.1007    3.7622   -3.6570 N.4     1  LIG11       0.3839
     30 C          -7.2902    3.7341   -4.5578 C.3     1  LIG11      -0.0872
     31 H          -8.1007    3.1445   -4.0959 H       1  LIG11       0.0062
     32 H          -7.0598    3.2437   -5.5149 H       1  LIG11       0.0062
     33 C          -7.8963    5.1444   -4.7874 C.3     1  LIG11      -0.0559
     34 H          -8.1515    5.7732   -3.9190 H       1  LIG11       0.0283
     35 C          -8.9035    5.2448   -5.9547 C.3     1  LIG11      -0.0517
     36 H          -9.7429    5.9492   -5.8433 H       1  LIG11       0.0267
     37 H          -9.0846    4.3489   -6.5691 H       1  LIG11       0.0267
     38 C          -7.5037    5.8828   -6.0865 C.3     1  LIG11      -0.0517
     39 H          -7.4613    6.9822   -6.0394 H       1  LIG11       0.0267
     40 H          -6.8115    5.3889   -6.7853 H       1  LIG11       0.0267
     41 O          -1.2646    2.3811   -2.0803 O.3     1  LIG11      -0.4778
     42 N          -0.5181    4.9128   -0.5043 N.ar    1  LIG11      -0.3548
     43 H          -0.0744    4.2196    0.1152 H       1  LIG11       0.1657
     44 C          -0.1941    6.2160   -0.5975 C.ar    1  LIG11       0.0470
     45 C           0.7886    6.9129    0.1044 C.ar    1  LIG11      -0.0375
     46 H           1.4208    6.4136    0.8307 H       1  LIG11       0.0638
     47 C           0.9241    8.2795   -0.1703 C.ar    1  LIG11      -0.0565
     48 H           1.6839    8.8470    0.3577 H       1  LIG11       0.0621
     49 C           0.1001    8.9204   -1.1110 C.ar    1  LIG11      -0.0452
     50 C          -0.8718    8.1979   -1.8190 C.ar    1  LIG11      -0.0491
     51 H          -1.5014    8.6732   -2.5635 H       1  LIG11       0.0627
     52 C          -1.0059    6.8387   -1.5383 C.ar    1  LIG11       0.0036
     53 C           0.2637   10.4248   -1.3696 C.3     1  LIG11      -0.0120
     54 H           0.6089   10.9086   -0.4446 H       1  LIG11       0.0328
     55 H          -0.7105   10.8643   -1.6352 H       1  LIG11       0.0328
     56 C           1.2780   10.6456   -2.5215 C.3     1  LIG11       0.0170
     57 H           1.3060   11.6786   -2.8818 H       1  LIG11       0.0466
     58 H           0.9013   10.0638   -3.3810 H       1  LIG11       0.0466
     59 N           2.5873   10.1196   -2.1338 N.am    1  LIG11      -0.2991
     60 H           2.7737    9.1762   -2.4290 H       1  LIG11       0.1502
     61 C           3.4998   10.7145   -1.3089 C.2     1  LIG11       0.2996
     62 O           4.4259    9.9951   -0.9613 O.2     1  LIG11      -0.2529
     63 C           2.6813   13.1034   -1.2152 C.3     1  LIG11       0.0102
     64 N           3.5410   11.9887   -0.8144 N.am    1  LIG11      -0.2997
     65 H           4.2795   12.2120   -0.1709 H       1  LIG11       0.1502
     66 C           3.0678   14.4307   -0.5061 C.3     1  LIG11      -0.0495
     67 O          -4.7587    5.2240   -1.6443 O.3     1  LIG11      -0.3888
     68 H          -5.1996    6.0640   -1.7153 H       1  LIG11       0.2101
     69 O           0.4982    1.2383   -4.1183 O.3     1  LIG11      -0.5033
     70 H           0.6497    1.1842   -3.1810 H       1  LIG11       0.2923
     71 H          -6.4944    4.1346   -2.7147 H       1  LIG11      -0.0813
     72 H           2.7907   13.2841   -2.2967 H       1  LIG11       0.0460
     73 H           1.6313   12.9196   -0.9512 H       1  LIG11       0.0460
     74 H           2.3989   15.2502   -0.8161 H       1  LIG11       0.0245
     75 H           4.1024   14.7094   -0.7591 H       1  LIG11       0.0245
     76 H           2.9907   14.3125    0.5857 H       1  LIG11       0.0245
@<TRIPOS>BOND
     1     2     1    1
     2    40    38    1
     3    37    35    1
     4     4     3    1
     5     1     3   ar
     6     1     8   ar
     7    10     9    1
     8    38    39    1
     9    38    35    1
    10    38    33    1
    11    35    36    1
    12    35    33    1
    13    11     9    1
    14     3     5   ar
    15    32    30    1
    16     9     8    1
    17     9    12    1
    18     8     7   ar
    19    33    30    1
    20    33    34    1
    21    30    31    1
    22    30    29    1
    23     5    69    1
    24     5     6   ar
    25    28    26    1
    26    13    12    1
    27    69    70    1
    28    17    15    1
    29    12    29    1
    30    12    14    1
    31     7     6   ar
    32     7    22    1
    33    29    26    1
    34    29    71    1
    35     6    41    1
    36    58    56    1
    37    26    27    1
    38    26    23    1
    39    16    15    1
    40    15    14    1
    41    15    18    1
    42    57    56    1
    43    14    22    1
    44    14    67    1
    45    51    50    1
    46    22    23    1
    47    22    20    1
    48    56    59    1
    49    56    53    1
    50    60    59    1
    51    72    63    1
    52    23    25    1
    53    23    24    1
    54    59    61   am
    55    41    20    1
    56    18    52   ar
    57    18    19   ar
    58    50    52   ar
    59    50    49   ar
    60    68    67    1
    61    55    53    1
    62    20    19    1
    63    20    21    1
    64    52    44   ar
    65    53    49    1
    66    53    54    1
    67    19    42   ar
    68    61    62    2
    69    61    64   am
    70    63    73    1
    71    63    64    1
    72    63    66    1
    73    49    47   ar
    74    74    66    1
    75    64    65    1
    76    75    66    1
    77    44    42   ar
    78    44    45   ar
    79    66    76    1
    80    42    43    1
    81    47    45   ar
    82    47    48    1
    83    45    46    1
