@<TRIPOS>MOLECULE
MOLECULE_30
 87 94 0 0 0
SMALL
GASTEIGER

@<TRIPOS>ATOM
      1 C          -2.2143    2.8253   -6.1153 C.ar    1  LIG111     -0.0547
      2 C           2.0248   15.7860   -6.2655 C.3     1  LIG111     -0.0529
      3 C          -1.0575    2.1056   -5.7731 C.ar    1  LIG111     -0.0162
      4 C           2.7908   16.2292   -7.5421 C.3     1  LIG111     -0.0533
      5 C          -0.6763    1.9236   -4.4356 C.ar    1  LIG111      0.1588
      6 C          -1.5083    2.4512   -3.4457 C.ar    1  LIG111      0.1668
      7 C          -2.6696    3.0992   -3.8068 C.ar    1  LIG111      0.0137
      8 C          -3.0289    3.3764   -5.1186 C.ar    1  LIG111     -0.0411
      9 C          -4.2482    4.2729   -5.3698 C.3     1  LIG111     -0.0368
     10 C           2.5510   17.7324   -7.8517 C.3     1  LIG111     -0.0559
     11 C           3.3220   18.1794   -9.1209 C.3     1  LIG111     -0.0653
     12 C          -4.9993    4.6934   -4.0533 C.3     1  LIG111     -0.0432
     13 H          -2.4786    2.9620   -7.1587 H       1  LIG111      0.0622
     14 C          -4.0267    4.8670   -2.8361 C.3     1  LIG111      0.0720
     15 C          -2.9390    5.9491   -3.1167 C.3     1  LIG111      0.0031
     16 H           0.9468   15.9685   -6.4069 H       1  LIG111      0.0265
     17 H           2.3678   16.3897   -5.4092 H       1  LIG111      0.0265
     18 C          -1.8557    5.8515   -2.0537 C.ar    1  LIG111     -0.0128
     19 C          -1.5289    4.6809   -1.3697 C.ar    1  LIG111      0.0622
     20 C          -2.2256    3.3357   -1.5437 C.3     1  LIG111      0.1523
     21 H          -0.4407    1.6823   -6.5591 H       1  LIG111      0.0655
     22 C          -3.4121    3.4675   -2.5600 C.3     1  LIG111      0.0677
     23 C          -4.5085    2.4118   -2.2632 C.3     1  LIG111     -0.0518
     24 H           2.4540   15.6232   -8.3992 H       1  LIG111      0.0265
     25 H           3.8699   16.0550   -7.3983 H       1  LIG111      0.0265
     26 C          -5.5918    2.3944   -3.3727 C.3     1  LIG111     -0.0891
     27 H          -4.9063    3.7666   -6.0864 H       1  LIG111      0.0298
     28 H          -3.8595    5.1703   -5.8769 H       1  LIG111      0.0298
     29 N          -6.1006    3.7628   -3.6557 N.4     1  LIG111      0.3839
     30 C          -7.2916    3.7308   -4.5550 C.3     1  LIG111     -0.0872
     31 H           1.4734   17.9100   -8.0047 H       1  LIG111      0.0263
     32 H           2.8833   18.3434   -6.9959 H       1  LIG111      0.0263
     33 C          -7.8984    5.1395   -4.7915 C.3     1  LIG111     -0.0559
     34 H           3.1348   19.2463   -9.3217 H       1  LIG111      0.0230
     35 C          -8.9022    5.2368   -5.9620 C.3     1  LIG111     -0.0517
     36 H           2.9941   17.5957   -9.9952 H       1  LIG111      0.0230
     37 H           4.4048   18.0337   -8.9837 H       1  LIG111      0.0230
     38 C          -7.5014    5.8725   -6.0923 C.3     1  LIG111     -0.0517
     39 H          -5.4377    5.6896   -4.2324 H       1  LIG111      0.0126
     40 H          -3.3817    6.9565   -3.1211 H       1  LIG111      0.0341
     41 O          -1.2645    2.3813   -2.0805 O.3     1  LIG111     -0.4778
     42 N          -0.5082    4.9209   -0.5214 N.ar    1  LIG111     -0.3548
     43 H          -2.4179    5.7999   -4.0717 H       1  LIG111      0.0341
     44 C          -0.1837    6.2236   -0.6237 C.ar    1  LIG111      0.0470
     45 C           0.8041    6.9244    0.0667 C.ar    1  LIG111     -0.0375
     46 H          -2.5580    3.0261   -0.5412 H       1  LIG111      0.0809
     47 C           0.9334    8.2910   -0.2118 C.ar    1  LIG111     -0.0560
     48 H          -4.9809    2.6610   -1.2994 H       1  LIG111      0.0258
     49 C           0.0965    8.9300   -1.1423 C.ar    1  LIG111     -0.0352
     50 C          -0.8710    8.2008   -1.8484 C.ar    1  LIG111     -0.0486
     51 H          -4.0581    1.4094   -2.1703 H       1  LIG111      0.0258
     52 C          -1.0010    6.8422   -1.5620 C.ar    1  LIG111      0.0036
     53 H          -6.4066    1.7316   -3.0331 H       1  LIG111      0.0059
     54 H          -5.1760    1.9449   -4.2881 H       1  LIG111      0.0059
     55 H          -6.4937    4.1393   -2.7152 H       1  LIG111     -0.0813
     56 H          -8.1015    3.1436   -4.0892 H       1  LIG111      0.0062
     57 H          -7.0623    3.2349   -5.5095 H       1  LIG111      0.0062
     58 H          -8.1554    5.7718   -3.9263 H       1  LIG111      0.0283
     59 C           0.2256   10.4385   -1.4001 C.3     1  LIG111      0.0752
     60 C           0.9923   10.7217   -2.6715 C.2     1  LIG111      0.2825
     61 N           0.9918   11.9501   -3.1326 N.pl3   1  LIG111     -0.2376
     62 N           1.5957    9.7323   -3.2046 N.2     1  LIG111     -0.1036
     63 O          -4.7561    5.2323   -1.6502 O.3     1  LIG111     -0.3888
     64 O           0.4962    1.2363   -4.1169 O.3     1  LIG111     -0.5033
     65 H          -9.7413    5.9419   -5.8545 H       1  LIG111      0.0267
     66 H          -9.0837    4.3372   -6.5706 H       1  LIG111      0.0267
     67 H          -7.4536    6.9715   -6.0450 H       1  LIG111      0.0267
     68 C           1.6977   12.3436   -4.3531 C.3     1  LIG111      0.0779
     69 C           1.4955   13.8511   -4.6693 C.3     1  LIG111     -0.0169
     70 C           2.2525   14.2806   -5.9560 C.3     1  LIG111     -0.0497
     71 H          -6.8044    5.3752   -6.7835 H       1  LIG111      0.0267
     72 H          -0.0624    4.2305    0.1006 H       1  LIG111      0.1657
     73 H           1.4432    6.4278    0.7890 H       1  LIG111      0.0638
     74 H           1.6986    8.8593    0.3068 H       1  LIG111      0.0621
     75 H          -1.5012    8.6730   -2.5941 H       1  LIG111      0.0627
     76 H           0.7383   10.9339   -0.5614 H       1  LIG111      0.0435
     77 H          -0.7877   10.8639   -1.4732 H       1  LIG111      0.0435
     78 H           0.4702   12.6738   -2.6118 H       1  LIG111      0.2910
     79 H           2.1387    9.8076   -4.0489 H       1  LIG111      0.3629
     80 H          -5.1968    6.0721   -1.7248 H       1  LIG111      0.2101
     81 H           0.6445    1.1772   -3.1792 H       1  LIG111      0.2923
     82 H           1.3172   11.7552   -5.2041 H       1  LIG111      0.0724
     83 H           2.7757   12.1504   -4.2285 H       1  LIG111      0.0724
     84 H           1.8591   14.4482   -3.8166 H       1  LIG111      0.0301
     85 H           0.4179   14.0475   -4.7954 H       1  LIG111      0.0301
     86 H           1.8987   13.6761   -6.8073 H       1  LIG111      0.0266
     87 H           3.3307   14.0935   -5.8234 H       1  LIG111      0.0266
@<TRIPOS>BOND
     1    36    11    1
     2    34    11    1
     3    11    37    1
     4    11    10    1
     5    24     4    1
     6    31    10    1
     7    10     4    1
     8    10    32    1
     9     4    25    1
    10     4     2    1
    11    13     1    1
    12    86    70    1
    13    71    38    1
    14    66    35    1
    15    21     3    1
    16    16     2    1
    17     2    70    1
    18     2    17    1
    19     1     3   ar
    20     1     8   ar
    21    38    67    1
    22    38    35    1
    23    38    33    1
    24    27     9    1
    25    35    65    1
    26    35    33    1
    27    70    87    1
    28    70    69    1
    29    28     9    1
    30     3     5   ar
    31    57    30    1
    32     9     8    1
    33     9    12    1
    34    82    68    1
    35     8     7   ar
    36    85    69    1
    37    33    30    1
    38    33    58    1
    39    69    68    1
    40    69    84    1
    41    30    56    1
    42    30    29    1
    43     5    64    1
    44     5     6   ar
    45    68    83    1
    46    68    61    1
    47    54    26    1
    48    39    12    1
    49    64    81    1
    50    43    15    1
    51    12    29    1
    52    12    14    1
    53    79    62    1
    54     7     6   ar
    55     7    22    1
    56    29    26    1
    57    29    55    1
    58     6    41    1
    59    26    53    1
    60    26    23    1
    61    62    60    2
    62    61    60    1
    63    61    78    1
    64    40    15    1
    65    15    14    1
    66    15    18    1
    67    14    22    1
    68    14    63    1
    69    60    59    1
    70    75    50    1
    71    22    23    1
    72    22    20    1
    73    23    51    1
    74    23    48    1
    75    41    20    1
    76    18    52   ar
    77    18    19   ar
    78    50    52   ar
    79    50    49   ar
    80    80    63    1
    81    52    44   ar
    82    20    19    1
    83    20    46    1
    84    77    59    1
    85    59    49    1
    86    59    76    1
    87    19    42   ar
    88    49    47   ar
    89    44    42   ar
    90    44    45   ar
    91    42    72    1
    92    47    45   ar
    93    47    74    1
    94    45    73    1
