@<TRIPOS>MOLECULE
MOLECULE_17
 74 81 0 0 0
SMALL
GASTEIGER

@<TRIPOS>ATOM
      1 C          -2.2159    2.8240   -6.1153 C.ar    1  LIG111     -0.0547
      2 H          -2.4819    2.9588   -7.1585 H       1  LIG111      0.0622
      3 C          -1.0577    2.1062   -5.7733 C.ar    1  LIG111     -0.0162
      4 H          -0.4416    1.6825   -6.5597 H       1  LIG111      0.0655
      5 C          -0.6744    1.9268   -4.4361 C.ar    1  LIG111      0.1588
      6 C          -1.5077    2.4511   -3.4454 C.ar    1  LIG111      0.1668
      7 C          -2.6705    3.0966   -3.8061 C.ar    1  LIG111      0.0137
      8 C          -3.0292    3.3756   -5.1179 C.ar    1  LIG111     -0.0411
      9 C          -4.2460    4.2756   -5.3686 C.3     1  LIG111     -0.0368
     10 H          -4.9052    3.7744   -6.0879 H       1  LIG111      0.0298
     11 H          -3.8535    5.1737   -5.8715 H       1  LIG111      0.0298
     12 C          -4.9973    4.6944   -4.0519 C.3     1  LIG111     -0.0432
     13 H          -5.4334    5.6919   -4.2292 H       1  LIG111      0.0126
     14 C          -4.0251    4.8627   -2.8337 C.3     1  LIG111      0.0720
     15 C          -2.9317    5.9402   -3.1103 C.3     1  LIG111      0.0031
     16 H          -3.3717    6.9487   -3.1214 H       1  LIG111      0.0341
     17 H          -2.4025    5.7865   -4.0602 H       1  LIG111      0.0341
     18 C          -1.8612    5.8428   -2.0342 C.ar    1  LIG111     -0.0128
     19 C          -1.5469    4.6723   -1.3440 C.ar    1  LIG111      0.0622
     20 C          -2.2329    3.3245   -1.5386 C.3     1  LIG111      0.1523
     21 H          -2.5684    3.0016   -0.5413 H       1  LIG111      0.0809
     22 C          -3.4151    3.4609   -2.5592 C.3     1  LIG111      0.0677
     23 C          -4.5137    2.4062   -2.2677 C.3     1  LIG111     -0.0518
     24 H          -4.9872    2.6532   -1.3038 H       1  LIG111      0.0258
     25 H          -4.0649    1.4027   -2.1775 H       1  LIG111      0.0258
     26 C          -5.5952    2.3944   -3.3787 C.3     1  LIG111     -0.0891
     27 H          -6.4116    1.7319   -3.0422 H       1  LIG111      0.0059
     28 H          -5.1792    1.9471   -4.2952 H       1  LIG111      0.0059
     29 N          -6.1005    3.7650   -3.6571 N.4     1  LIG111      0.3839
     30 C          -7.2918    3.7380   -4.5561 C.3     1  LIG111     -0.0872
     31 H          -8.1031    3.1522   -4.0909 H       1  LIG111      0.0062
     32 H          -7.0639    3.2432   -5.5115 H       1  LIG111      0.0062
     33 C          -7.8944    5.1488   -4.7897 C.3     1  LIG111     -0.0559
     34 H          -8.1434    5.7830   -3.9236 H       1  LIG111      0.0283
     35 C          -8.9068    5.2479   -5.9527 C.3     1  LIG111     -0.0517
     36 H          -9.7428    5.9556   -5.8388 H       1  LIG111      0.0267
     37 H          -9.0969    4.3469   -6.5565 H       1  LIG111      0.0267
     38 C          -7.5046    5.8782   -6.0948 C.3     1  LIG111     -0.0517
     39 H          -7.4538    6.9772   -6.0512 H       1  LIG111      0.0267
     40 H          -6.8159    5.3771   -6.7917 H       1  LIG111      0.0267
     41 O          -1.2640    2.3803   -2.0801 O.3     1  LIG111     -0.4778
     42 N          -0.5494    4.9150   -0.4694 N.ar    1  LIG111     -0.3548
     43 H          -0.1194    4.2264    0.1657 H       1  LIG111      0.1657
     44 C          -0.2218    6.2172   -0.5678 C.ar    1  LIG111      0.0470
     45 C           0.7451    6.9201    0.1493 C.ar    1  LIG111     -0.0375
     46 H           1.3540    6.4294    0.9012 H       1  LIG111      0.0638
     47 C           0.8943    8.2814   -0.1433 C.ar    1  LIG111     -0.0565
     48 H           1.6397    8.8540    0.3993 H       1  LIG111      0.0621
     49 C           0.1050    8.9111   -1.1207 C.ar    1  LIG111     -0.0452
     50 C          -0.8610    8.1857   -1.8329 C.ar    1  LIG111     -0.0491
     51 H          -1.4736    8.6538   -2.5955 H       1  LIG111      0.0627
     52 C          -1.0106    6.8320   -1.5327 C.ar    1  LIG111      0.0036
     53 C           0.3048   10.4045   -1.4152 C.3     1  LIG111     -0.0120
     54 H           0.6093   10.9207   -0.4927 H       1  LIG111      0.0328
     55 H          -0.6436   10.8576   -1.7471 H       1  LIG111      0.0328
     56 C           1.3837   10.5742   -2.5151 C.3     1  LIG111      0.0156
     57 H           1.5391   11.6406   -2.7375 H       1  LIG111      0.0465
     58 H           1.0016   10.1131   -3.4417 H       1  LIG111      0.0465
     59 N           2.6105    9.8725   -2.1284 N.am    1  LIG111     -0.3150
     60 H           2.6980    8.8740   -2.3842 H       1  LIG111      0.1487
     61 C           3.6144   10.4396   -1.5054 C.2     1  LIG111      0.2128
     62 O           4.6076    9.7867   -1.2225 O.2     1  LIG111     -0.2758
     63 C           3.6091   11.9024   -1.1122 C.3     1  LIG111      0.0211
     64 C           4.8129   12.2843   -0.2108 C.3     1  LIG111     -0.0570
     65 H           3.6586   12.5182   -2.0245 H       1  LIG111      0.0356
     66 H           2.6871   12.1484   -0.5644 H       1  LIG111      0.0356
     67 O          -4.7548    5.2285   -1.6482 O.3     1  LIG111     -0.3888
     68 H          -5.1917    6.0704   -1.7220 H       1  LIG111      0.2101
     69 O           0.5017    1.2450   -4.1184 O.3     1  LIG111     -0.5033
     70 H           0.6532    1.1896   -3.1811 H       1  LIG111      0.2923
     71 H          -6.4926    4.1395   -2.7154 H       1  LIG111     -0.0813
     72 H           4.7661   13.3524    0.0552 H       1  LIG111      0.0234
     73 H           5.7636   12.0975   -0.7349 H       1  LIG111      0.0234
     74 H           4.7961   11.6915    0.7173 H       1  LIG111      0.0234
@<TRIPOS>BOND
     1     2     1    1
     2    40    38    1
     3     4     3    1
     4    37    35    1
     5     1     3   ar
     6     1     8   ar
     7    38    39    1
     8    38    35    1
     9    38    33    1
    10    10     9    1
    11    35    36    1
    12    35    33    1
    13    11     9    1
    14     3     5   ar
    15    32    30    1
    16     9     8    1
    17     9    12    1
    18     8     7   ar
    19    33    30    1
    20    33    34    1
    21    30    31    1
    22    30    29    1
    23     5    69    1
    24     5     6   ar
    25    28    26    1
    26    13    12    1
    27    69    70    1
    28    17    15    1
    29    12    29    1
    30    12    14    1
    31     7     6   ar
    32     7    22    1
    33    29    26    1
    34    29    71    1
    35     6    41    1
    36    58    56    1
    37    26    27    1
    38    26    23    1
    39    16    15    1
    40    15    14    1
    41    15    18    1
    42    14    22    1
    43    14    67    1
    44    57    56    1
    45    51    50    1
    46    22    23    1
    47    22    20    1
    48    56    59    1
    49    56    53    1
    50    60    59    1
    51    23    25    1
    52    23    24    1
    53    59    61   am
    54    41    20    1
    55    18    52   ar
    56    18    19   ar
    57    65    63    1
    58    50    52   ar
    59    50    49   ar
    60    55    53    1
    61    68    67    1
    62    20    19    1
    63    20    21    1
    64    52    44   ar
    65    61    62    2
    66    61    63    1
    67    53    49    1
    68    53    54    1
    69    19    42   ar
    70    49    47   ar
    71    63    66    1
    72    63    64    1
    73    73    64    1
    74    44    42   ar
    75    44    45   ar
    76    42    43    1
    77    64    72    1
    78    64    74    1
    79    47    45   ar
    80    47    48    1
    81    45    46    1
