@<TRIPOS>MOLECULE
28
 37 40 0 0 0
SMALL
GASTEIGER

@<TRIPOS>ATOM
      1 C           3.5937    1.3236   -0.1261 C.ar    1  LIG111     -0.0506
      2 C           4.8610    0.7280   -0.0783 C.ar    1  LIG111     -0.0610
      3 C           4.9981   -0.6518    0.0637 C.ar    1  LIG111     -0.0600
      4 C           2.4785    0.5132   -0.0293 C.ar    1  LIG111      0.0265
      5 C           2.6221   -0.9073    0.1171 C.ar    1  LIG111      0.0408
      6 C           3.8868   -1.4951    0.1639 C.ar    1  LIG111     -0.0399
      7 C           1.0317    0.8104   -0.0440 C.2     1  LIG111      0.1340
      8 C           0.3399   -0.5335    0.1002 C.2     1  LIG111      0.0738
      9 C          -0.9843   -0.8455    0.1396 C.2     1  LIG111      0.0692
     10 C          -1.4331   -2.2857    0.2812 C.2     1  LIG111      0.2508
     11 C          -2.2209   -0.0621    0.0693 C.ar    1  LIG111      0.0102
     12 C          -3.3255   -0.9970    0.1641 C.ar    1  LIG111      0.0416
     13 C          -2.5194    1.2832   -0.0571 C.ar    1  LIG111     -0.0520
     14 C          -3.8605    1.6986   -0.0907 C.ar    1  LIG111     -0.0611
     15 C          -4.9054    0.7896   -0.0000 C.ar    1  LIG111     -0.0600
     16 C          -4.6513   -0.5811    0.1296 C.ar    1  LIG111     -0.0399
     17 N           1.3593   -1.5004    0.1930 N.pl3   1  LIG111     -0.3116
     18 N          -2.8347   -2.3074    0.2885 N.am    1  LIG111     -0.2809
     19 N           0.3832    1.9350   -0.1515 N.2     1  LIG111     -0.0724
     20 O           1.1287    3.0262   -0.2713 O.3     1  LIG111     -0.3170
     21 C           0.4837    4.2703   -0.3979 C.2     1  LIG111      0.3327
     22 C           1.5121    5.3416   -0.5167 C.3     1  LIG111      0.0356
     23 O          -0.7356    4.3581   -0.4004 O.2     1  LIG111     -0.2486
     24 O          -0.7453   -3.3169    0.3783 O.2     1  LIG111     -0.2698
     25 H           3.4856    2.4128   -0.2377 H       1  LIG111      0.0625
     26 H           5.7571    1.3604   -0.1542 H       1  LIG111      0.0618
     27 H           6.0054   -1.0960    0.0984 H       1  LIG111      0.0618
     28 H           4.0107   -2.5804    0.2749 H       1  LIG111      0.0636
     29 H          -1.7467    2.0636   -0.1347 H       1  LIG111      0.0624
     30 H          -4.0755    2.7732   -0.1921 H       1  LIG111      0.0618
     31 H          -5.9477    1.1406   -0.0291 H       1  LIG111      0.0618
     32 H          -5.4786   -1.2993    0.2018 H       1  LIG111      0.0636
     33 H           1.1875   -2.4738    0.2918 H       1  LIG111      0.1522
     34 H          -3.3935   -3.1149    0.3692 H       1  LIG111      0.1552
     35 H           2.2024    5.3060    0.3612 H       1  LIG111      0.0342
     36 H           2.1073    5.1893   -1.4502 H       1  LIG111      0.0342
     37 H           1.0003    6.3341   -0.5543 H       1  LIG111      0.0342
@<TRIPOS>BOND
     1    36    22    1
     2    37    22    1
     3    22    21    1
     4    22    35    1
     5    23    21    2
     6    21    20    1
     7    20    19    1
     8    25     1    1
     9    30    14    1
    10    26     2    1
    11    19     7    2
    12    29    13    1
    13     1     2   ar
    14     1     4   ar
    15    14    13   ar
    16    14    15   ar
    17     2     3   ar
    18    13    11   ar
    19     7     4    1
    20     7     8    1
    21     4     5   ar
    22    31    15    1
    23    15    16   ar
    24     3    27    1
    25     3     6   ar
    26    11     9    1
    27    11    12   ar
    28     8     9    2
    29     8    17    1
    30     5     6   ar
    31     5    17    1
    32    16    12   ar
    33    16    32    1
    34     9    10    1
    35     6    28    1
    36    12    18    1
    37    17    33    1
    38    10    18   am
    39    10    24    2
    40    18    34    1
