@<TRIPOS>MOLECULE
cpd_24
 53 56 0 0 0
SMALL
GASTEIGER
Energy = 0

@<TRIPOS>ATOM
      1 C1         -4.9034   -4.8479    7.2624 C.ar    1  <0>1        0.0670
      2 C2         -4.9575   -4.8612    8.6504 C.ar    1  <0>1       -0.0362
      3 C3         -3.8507   -4.2384    6.5746 C.ar    1  <0>1        0.0700
      4 C4         -3.9290   -4.2479    9.3674 C.ar    1  <0>1       -0.0597
      5 C5         -2.8232   -3.6272    7.2936 C.ar    1  <0>1       -0.0360
      6 C6         -2.8689   -3.6358    8.6914 C.ar    1  <0>1       -0.0597
      7 H1         -5.7959   -5.3459    9.1784 H       1  <0>1        0.0639
      8 H2         -3.9527   -4.2482   10.4704 H       1  <0>1        0.0618
      9 H3         -1.9778   -3.1367    6.7915 H       1  <0>1        0.0639
     10 H4         -2.0621   -3.1546    9.2717 H       1  <0>1        0.0618
     11 C7          3.3030    1.2142   -3.1115 C.ar    1  <0>1       -0.0258
     12 C8          3.5140    2.5848   -3.2464 C.ar    1  <0>1        0.1234
     13 C9          2.9809    3.4523   -2.2962 C.ar    1  <0>1       -0.0258
     14 C10         2.2408    2.9513   -1.2214 C.ar    1  <0>1       -0.0486
     15 C11         2.0190    1.5745   -1.0738 C.ar    1  <0>1        0.0176
     16 C12         2.5640    0.7108   -2.0381 C.ar    1  <0>1       -0.0486
     17 C13         1.2235    1.0744    0.0817 C.2     1  <0>1        0.1631
     18 O1          0.7839    1.8422    0.9098 O.2     1  <0>1       -0.2921
     19 C14         0.9695   -0.4223    0.2051 C.3     1  <0>1        0.0088
     20 C15         0.0858   -0.7541    1.4146 C.3     1  <0>1       -0.0610
     21 C16        -0.2014   -2.2592    1.5568 C.3     1  <0>1       -0.0902
     22 N1         -0.9731   -2.6381    2.7935 N.4     1  <0>1        0.3798
     23 C17        -2.3305   -1.9977    2.8336 C.3     1  <0>1       -0.0888
     24 C18        -3.1558   -2.4384    4.0534 C.3     1  <0>1       -0.0469
     25 C19        -3.2937   -3.9540    4.1065 C.3     1  <0>1        0.0360
     26 C20        -1.9123   -4.5956    4.0904 C.3     1  <0>1       -0.0469
     27 C21        -1.1088   -4.1303    2.8657 C.3     1  <0>1       -0.0888
     28 N2         -4.1162   -4.4119    5.2206 N.ar    1  <0>1       -0.2893
     29 F1          4.2135    3.0543   -4.2638 F       1  <0>1       -0.2055
     30 C22        -5.3004   -5.1120    5.0478 C.ar    1  <0>1        0.3278
     31 N3         -5.7649   -5.3650    6.3202 N.ar    1  <0>1       -0.3059
     32 O2         -5.8153   -5.4326    4.0051 O.2     1  <0>1       -0.2465
     33 H5          3.7288    0.5329   -3.8673 H       1  <0>1        0.0646
     34 H6          3.1470    4.5372   -2.4022 H       1  <0>1        0.0646
     35 H7          1.8272    3.6595   -0.4811 H       1  <0>1        0.0625
     36 H8          2.4219   -0.3789   -1.9701 H       1  <0>1        0.0625
     37 H9          0.4722   -0.7929   -0.7198 H       1  <0>1        0.0344
     38 H10         1.9420   -0.9576    0.3046 H       1  <0>1        0.0344
     39 H11         0.5792   -0.3881    2.3448 H       1  <0>1        0.0251
     40 H12        -0.8765   -0.2004    1.3149 H       1  <0>1        0.0251
     41 H13        -0.7462   -2.6042    0.6483 H       1  <0>1        0.0059
     42 H14         0.7764   -2.7978    1.5539 H       1  <0>1        0.0059
     43 H15        -2.2423   -0.8865    2.8583 H       1  <0>1        0.0060
     44 H16        -2.8976   -2.2479    1.9078 H       1  <0>1        0.0060
     45 H17        -2.6749   -2.0536    4.9796 H       1  <0>1        0.0267
     46 H18        -4.1684   -1.9722    4.0068 H       1  <0>1        0.0267
     47 H19        -1.3502   -4.3440    5.0163 H       1  <0>1        0.0267
     48 H20        -2.0144   -5.7047    4.0711 H       1  <0>1        0.0267
     49 H21        -0.1030   -4.6107    2.8952 H       1  <0>1        0.0060
     50 H22        -1.6083   -4.5131    1.9444 H       1  <0>1        0.0060
     51 H23        -6.6192   -5.8660    6.5921 H       1  <0>1        0.1704
     52 H24        -3.7893   -4.2555    3.1516 H       1  <0>1        0.0528
     53 H25        -0.4536   -2.3226    3.5977 H       1  <0>1       -0.0818
@<TRIPOS>BOND
     1    21    22    1
     2    30    31   ar
     3     1    31   ar
     4     1     3   ar
     5     1     2   ar
     6     2     7    1
     7     2     4   ar
     8     3    28   ar
     9     3     5   ar
    10     4     6   ar
    11     4     8    1
    12     5     9    1
    13     5     6   ar
    14     6    10    1
    15    11    12   ar
    16    11    16   ar
    17    11    33    1
    18    12    13   ar
    19    12    29    1
    20    13    34    1
    21    13    14   ar
    22    14    35    1
    23    14    15   ar
    24    15    17    1
    25    15    16   ar
    26    16    36    1
    27    17    18    2
    28    17    19    1
    29    19    37    1
    30    19    20    1
    31    19    38    1
    32    20    40    1
    33    20    39    1
    34    20    21    1
    35    21    41    1
    36    21    42    1
    37    22    23    1
    38    22    53    1
    39    22    27    1
    40    23    43    1
    41    23    44    1
    42    23    24    1
    43    24    46    1
    44    24    45    1
    45    24    25    1
    46    25    52    1
    47    25    28    1
    48    25    26    1
    49    26    27    1
    50    26    47    1
    51    26    48    1
    52    27    50    1
    53    27    49    1
    54    28    30   ar
    55    30    32    2
    56    31    51    1
