#	Name:			mol26
#	Creating user name:	becker
#	Creation time:		Wed Apr 19 13:40:35 2006

#	Modifying user name:	becker
#	Modification time:	Wed Apr 19 13:40:35 2006

@<TRIPOS>MOLECULE
mol26
   45    49     1     0     0
SMALL
NO_CHARGES


@<TRIPOS>ATOM
      1 C           0.585000   -3.508000    0.495000 C.ar      1 <1>         0.000000 
      2 H           0.345000   -4.546000    0.284000 H         1 <1>         0.000000 
      3 C           1.680000   -3.192000    1.299000 C.ar      1 <1>         0.000000 
      4 H           2.291000   -3.981000    1.722000 H         1 <1>         0.000000 
      5 C           1.987000   -1.853000    1.555000 C.ar      1 <1>         0.000000 
      6 C           1.200000   -0.821000    1.029000 C.ar      1 <1>         0.000000 
      7 C           0.081000   -1.141000    0.244000 C.ar      1 <1>         0.000000 
      8 C          -0.201000   -2.484000   -0.039000 C.ar      1 <1>         0.000000 
      9 H          -1.035000   -2.743000   -0.683000 H         1 <1>         0.000000 
     10 N          -0.741000   -0.177000   -0.241000 N.pl3     1 <1>         0.000000 
     11 C          -2.039000   -0.232000   -0.258000 C.ar      1 <1>         0.000000 
     12 H          -2.667000   -1.041000    0.114000 H         1 <1>         0.000000 
     13 N          -2.497000    0.815000   -0.775000 N.ar      1 <1>         0.000000 
     14 C          -1.421000    1.688000   -1.155000 C.ar      1 <1>         0.000000 
     15 C          -0.352000    0.958000   -0.776000 C.ar      1 <1>         0.000000 
     16 C           1.100000    1.308000   -0.902000 C.3       1 <1>         0.000000 
     17 H           1.250000    2.156000   -1.584000 H         1 <1>         0.000000 
     18 H           1.663000    0.460000   -1.323000 H         1 <1>         0.000000 
     19 N           1.543000    1.606000    0.454000 N.am      1 <1>         0.000000 
     20 C           1.607000    0.601000    1.363000 C.2       1 <1>         0.000000 
     21 O           2.013000    0.800000    2.497000 O.2       1 <1>         0.000000 
     22 C           1.923000    2.953000    0.883000 C.3       1 <1>         0.000000 
     23 H           1.769000    3.703000    0.093000 H         1 <1>         0.000000 
     24 H           1.294000    3.245000    1.740000 H         1 <1>         0.000000 
     25 C           3.412000    2.971000    1.252000 C.ar      1 <1>         0.000000 
     26 C           4.338000    2.343000    0.413000 C.ar      1 <1>         0.000000 
     27 H           4.007000    1.865000   -0.503000 H         1 <1>         0.000000 
     28 C           5.696000    2.326000    0.746000 C.ar      1 <1>         0.000000 
     29 H           6.409000    1.830000    0.094000 H         1 <1>         0.000000 
     30 C           6.136000    2.947000    1.918000 C.ar      1 <1>         0.000000 
     31 H           7.190000    2.933000    2.179000 H         1 <1>         0.000000 
     32 C           5.216000    3.587000    2.753000 C.ar      1 <1>         0.000000 
     33 H           5.557000    4.073000    3.662000 H         1 <1>         0.000000 
     34 C           3.858000    3.601000    2.420000 C.ar      1 <1>         0.000000 
     35 H           3.155000    4.104000    3.075000 H         1 <1>         0.000000 
     36 C          -1.574000    3.012000   -1.779000 C.ar      1 <1>         0.000000 
     37 O          -2.695000    3.504000   -2.119000 O.3       1 <1>         0.000000 
     38 N          -2.387000    4.772000   -2.664000 N.ar      1 <1>         0.000000 
     39 C          -1.124000    4.857000   -2.570000 C.ar      1 <1>         0.000000 
     40 N          -0.525000    3.798000   -2.027000 N.ar      1 <1>         0.000000 
     41 C          -0.282000    6.021000   -3.009000 C.3       1 <1>         0.000000 
     42 H          -0.916000    6.813000   -3.436000 H         1 <1>         0.000000 
     43 H           0.440000    5.690000   -3.771000 H         1 <1>         0.000000 
     44 H           0.266000    6.427000   -2.145000 H         1 <1>         0.000000 
     45 Cl          3.380000   -1.477000    2.546000 Cl        1 <1>         0.000000 
@<TRIPOS>BOND
     1    2    1 1    
     2    1    3 ar   
     3    3    4 1    
     4    3    5 ar   
     5    5    6 ar   
     6    6    7 ar   
     7    7    8 ar   
     8    8    9 1    
     9    8    1 ar   
    10    7   10 1    
    11   10   11 ar   
    12   11   12 1    
    13   11   13 ar   
    14   13   14 ar   
    15   14   15 ar   
    16   15   10 ar   
    17   15   16 1    
    18   16   17 1    
    19   16   18 1    
    20   16   19 1    
    21   19   20 am   
    22   20    6 1    
    23   20   21 2    
    24   19   22 1    
    25   22   23 1    
    26   22   24 1    
    27   22   25 1    
    28   25   26 ar   
    29   26   27 1    
    30   26   28 ar   
    31   28   29 1    
    32   28   30 ar   
    33   30   31 1    
    34   30   32 ar   
    35   32   33 1    
    36   32   34 ar   
    37   34   35 1    
    38   34   25 ar   
    39   14   36 1    
    40   36   37 ar   
    41   37   38 ar   
    42   38   39 ar   
    43   39   40 ar   
    44   40   36 ar   
    45   39   41 1    
    46   41   42 1    
    47   41   43 1    
    48   41   44 1    
    49    5   45 1    
@<TRIPOS>SUBSTRUCTURE
     1 ****        2 TEMP              0 ****  ****    0 ROOT 
