#	Name:			ro17_3129
#	Creating user name:	becker
#	Creation time:		Wed Apr 19 13:40:35 2006

#	Modifying user name:	becker
#	Modification time:	Wed Apr 19 13:40:35 2006

@<TRIPOS>MOLECULE
ro17_3129
   44    48     1     0     0
SMALL
NO_CHARGES


@<TRIPOS>ATOM
      1 C           1.801000   -3.413000    0.538000 C.ar      1 <1>         0.000000 
      2 H           1.603000   -4.281000    1.160000 H         1 <1>         0.000000 
      3 C           2.763000   -3.479000   -0.470000 C.ar      1 <1>         0.000000 
      4 C           2.983000   -2.366000   -1.284000 C.ar      1 <1>         0.000000 
      5 H           3.718000   -2.443000   -2.078000 H         1 <1>         0.000000 
      6 C           2.270000   -1.175000   -1.093000 C.ar      1 <1>         0.000000 
      7 C           1.361000   -1.084000   -0.029000 C.ar      1 <1>         0.000000 
      8 C           1.096000   -2.225000    0.740000 C.ar      1 <1>         0.000000 
      9 H           0.329000   -2.199000    1.508000 H         1 <1>         0.000000 
     10 N           0.735000    0.073000    0.296000 N.pl3     1 <1>         0.000000 
     11 C           0.584000    0.490000    1.517000 C.ar      1 <1>         0.000000 
     12 H           0.954000    0.018000    2.427000 H         1 <1>         0.000000 
     13 N          -0.073000    1.554000    1.519000 N.ar      1 <1>         0.000000 
     14 C          -0.426000    1.912000    0.175000 C.ar      1 <1>         0.000000 
     15 C           0.164000    0.922000   -0.534000 C.ar      1 <1>         0.000000 
     16 C           0.213000    0.726000   -2.034000 C.3       1 <1>         0.000000 
     17 H          -0.246000   -0.236000   -2.313000 H         1 <1>         0.000000 
     18 N           1.583000    0.775000   -2.530000 N.am      1 <1>         0.000000 
     19 C           2.549000   -0.056000   -2.074000 C.2       1 <1>         0.000000 
     20 O           3.698000    0.045000   -2.475000 O.2       1 <1>         0.000000 
     21 C           1.887000    1.690000   -3.622000 C.3       1 <1>         0.000000 
     22 H           2.292000    2.634000   -3.223000 H         1 <1>         0.000000 
     23 H           2.570000    1.279000   -4.385000 H         1 <1>         0.000000 
     24 C           0.462000    1.862000   -4.187000 C.3       1 <1>         0.000000 
     25 H           0.348000    2.773000   -4.798000 H         1 <1>         0.000000 
     26 H           0.186000    0.984000   -4.795000 H         1 <1>         0.000000 
     27 C          -0.382000    1.874000   -2.896000 C.3       1 <1>         0.000000 
     28 H          -0.182000    2.855000   -2.439000 H         1 <1>         0.000000 
     29 H          -1.461000    1.763000   -3.090000 H         1 <1>         0.000000 
     30 C          -1.244000    3.093000   -0.139000 C.2       1 <1>         0.000000 
     31 O          -2.144000    2.980000   -0.956000 O.2       1 <1>         0.000000 
     32 O          -0.991000    4.248000    0.492000 O.3       1 <1>         0.000000 
     33 C          -1.737000    5.376000   -0.006000 C.3       1 <1>         0.000000 
     34 H          -1.452000    6.237000    0.616000 H         1 <1>         0.000000 
     35 H          -2.823000    5.223000    0.103000 H         1 <1>         0.000000 
     36 C          -1.311000    5.694000   -1.462000 C.3       1 <1>         0.000000 
     37 H          -0.240000    5.709000   -1.720000 H         1 <1>         0.000000 
     38 C          -2.128000    6.814000   -2.145000 C.3       1 <1>         0.000000 
     39 H          -1.596000    7.475000   -2.847000 H         1 <1>         0.000000 
     40 H          -2.965000    7.256000   -1.582000 H         1 <1>         0.000000 
     41 C          -2.304000    5.349000   -2.595000 C.3       1 <1>         0.000000 
     42 H          -3.273000    4.892000   -2.341000 H         1 <1>         0.000000 
     43 H          -1.870000    5.082000   -3.572000 H         1 <1>         0.000000 
     44 Cl          3.685000   -4.948000   -0.713000 Cl        1 <1>         0.000000 
@<TRIPOS>BOND
     1    2    1 1    
     2    1    3 ar   
     3    3    4 ar   
     4    4    5 1    
     5    4    6 ar   
     6    6    7 ar   
     7    7    8 ar   
     8    8    9 1    
     9    8    1 ar   
    10    7   10 1    
    11   10   11 ar   
    12   11   12 1    
    13   11   13 ar   
    14   13   14 ar   
    15   14   15 ar   
    16   15   10 ar   
    17   15   16 1    
    18   16   17 1    
    19   16   18 1    
    20   18   19 am   
    21   19    6 1    
    22   19   20 2    
    23   18   21 1    
    24   21   22 1    
    25   21   23 1    
    26   21   24 1    
    27   24   25 1    
    28   24   26 1    
    29   24   27 1    
    30   27   28 1    
    31   27   29 1    
    32   27   16 1    
    33   14   30 1    
    34   30   31 2    
    35   30   32 1    
    36   32   33 1    
    37   33   34 1    
    38   33   35 1    
    39   33   36 1    
    40   36   37 1    
    41   36   38 1    
    42   38   39 1    
    43   38   40 1    
    44   38   41 1    
    45   41   42 1    
    46   41   43 1    
    47   41   36 1    
    48    3   44 1    
@<TRIPOS>SUBSTRUCTURE
     1 ****        2 TEMP              0 ****  ****    0 ROOT 
