@<TRIPOS>MOLECULE
cpd12
 55 57 0 0 0
SMALL
GASTEIGER
Energy = 0

@<TRIPOS>ATOM
      1 C          -0.7754    2.6096   -1.0256 C.ar    1  LIG11       0.1119
      2 N          -1.0471    3.8799   -0.7232 N.ar    1  LIG11      -0.2205
      3 C          -2.1906    4.2022   -1.4417 C.ar    1  LIG11       0.1527
      4 C          -2.5946    3.1088   -2.1663 C.ar    1  LIG11       0.0831
      5 CL         -2.9545    5.7355   -1.4226 Cl      1  LIG11      -0.0600
      6 C          -3.7717    2.9985   -3.0947 C.3     1  LIG11       0.0872
      7 O          -3.3571    2.8155   -4.4320 O.3     1  LIG11      -0.3889
      8 C           0.4053    1.9006   -0.4239 C.3     1  LIG11       0.0057
      9 C           1.3058    2.7968    0.4403 C.3     1  LIG11      -0.0465
     10 C           2.4903    2.0119    1.0281 C.3     1  LIG11      -0.0555
     11 N          -1.6767    2.1050   -1.8889 N.ar    1  LIG11      -0.3239
     12 C          -1.6673    0.7648   -2.4371 C.3     1  LIG11       0.0498
     13 C          -1.7996   -0.2620   -1.3391 C.ar    1  LIG11      -0.0277
     14 C          -2.8824   -0.2083   -0.4593 C.ar    1  LIG11      -0.0563
     15 C          -2.9548   -1.0740    0.6307 C.ar    1  LIG11      -0.0536
     16 C          -1.9449   -2.0106    0.8568 C.ar    1  LIG11      -0.0136
     17 C          -0.8919   -2.1038   -0.0549 C.ar    1  LIG11      -0.0536
     18 C          -0.8235   -1.2419   -1.1479 C.ar    1  LIG11      -0.0563
     19 C          -1.9654   -2.8824    2.0783 C.ar    1  LIG11       0.0377
     20 C          -3.0586   -3.7340    2.2834 C.ar    1  LIG11       0.1286
     21 C          -3.0180   -4.6461    3.3429 C.ar    1  LIG11      -0.0193
     22 C          -1.8954   -4.7338    4.1639 C.ar    1  LIG11      -0.0575
     23 C          -0.8141   -3.8806    3.9611 C.ar    1  LIG11      -0.0470
     24 C          -0.8665   -2.9283    2.9434 C.ar    1  LIG11       0.0700
     25 H          -4.3990    2.1228   -2.8034 H       1  LIG11       0.0623
     26 H          -4.4181    3.9068   -3.0606 H       1  LIG11       0.0623
     27 H          -2.9693    3.6213   -4.7308 H       1  LIG11       0.2099
     28 H           0.0230    1.0665    0.2081 H       1  LIG11       0.0343
     29 H           1.0086    1.4610   -1.2524 H       1  LIG11       0.0343
     30 H           1.6952    3.6420   -0.1774 H       1  LIG11       0.0269
     31 H           0.7085    3.2338    1.2768 H       1  LIG11       0.0269
     32 H           3.0974    1.5733    0.1994 H       1  LIG11       0.0263
     33 H          -2.5064    0.6099   -3.1514 H       1  LIG11       0.0542
     34 H          -0.7263    0.6308   -3.0192 H       1  LIG11       0.0542
     35 H          -3.6722    0.5479   -0.6045 H       1  LIG11       0.0621
     36 H          -3.7887   -0.9727    1.3459 H       1  LIG11       0.0624
     37 H          -0.1030   -2.8622    0.0850 H       1  LIG11       0.0624
     38 H           0.0321   -1.3161   -1.8399 H       1  LIG11       0.0621
     39 H          -3.8522   -5.3350    3.5494 H       1  LIG11       0.0654
     40 H          -1.8671   -5.4714    4.9848 H       1  LIG11       0.0619
     41 C           0.2554   -1.9295    2.8429 C.2     1  LIG11       0.3375
     42 O           0.0212   -0.6466    2.5384 O.3     1  LIG11      -0.4771
     43 O           1.3965   -2.2678    3.0443 O.2     1  LIG11      -0.2451
     44 H          -0.9383   -0.5225    2.5502 H       1  LIG11       0.2954
     45 H           2.1089    1.1624    1.6449 H       1  LIG11       0.0263
     46 C           3.3893    2.9011    1.8970 C.3     1  LIG11      -0.0653
     47 H           4.2435    2.3190    2.3155 H       1  LIG11       0.0230
     48 H           3.8125    3.7456    1.3052 H       1  LIG11       0.0230
     49 H           2.8213    3.3321    2.7539 H       1  LIG11       0.0230
     50 H           0.0535   -3.9368    4.6403 H       1  LIG11       0.0626
     51 O          -4.0919   -3.6597    1.3834 O.3     1  LIG11      -0.4945
     52 C          -5.2141   -4.4915    1.5411 C.3     1  LIG11       0.0788
     53 H          -5.9124   -4.2402    0.7117 H       1  LIG11       0.0660
     54 H          -4.9089   -5.5588    1.4419 H       1  LIG11       0.0660
     55 H          -5.7144   -4.2688    2.5118 H       1  LIG11       0.0660
@<TRIPOS>BOND
     1    27     7    1
     2     7     6    1
     3    33    12    1
     4     6    26    1
     5     6    25    1
     6     6     4    1
     7    34    12    1
     8    12    11    1
     9    12    13    1
    10     4    11   ar
    11     4     3   ar
    12    11     1   ar
    13    38    18    1
    14     3     5    1
    15     3     2   ar
    16    13    18   ar
    17    13    14   ar
    18    29     8    1
    19    18    17   ar
    20     1     2   ar
    21     1     8    1
    22    35    14    1
    23    14    15   ar
    24     8    28    1
    25     8     9    1
    26    30     9    1
    27    17    37    1
    28    17    16   ar
    29    32    10    1
    30     9    10    1
    31     9    31    1
    32    15    16   ar
    33    15    36    1
    34    53    52    1
    35    16    19    1
    36    10    45    1
    37    10    46    1
    38    48    46    1
    39    51    52    1
    40    51    20    1
    41    54    52    1
    42    52    55    1
    43    46    47    1
    44    46    49    1
    45    19    20   ar
    46    19    24   ar
    47    20    21   ar
    48    42    44    1
    49    42    41    1
    50    41    24    1
    51    41    43    2
    52    24    23   ar
    53    21    39    1
    54    21    22   ar
    55    23    22   ar
    56    23    50    1
    57    22    40    1
