@<TRIPOS>MOLECULE
cpd16
 55 59 0 0 0
SMALL
GASTEIGER
Energy = 0

@<TRIPOS>ATOM
      1 C          -3.1920   -1.2302    0.1452 C.ar    1  LIG11      -0.0537
      2 C          -2.9736   -0.3280   -0.8948 C.ar    1  LIG11      -0.0563
      3 C          -1.7434   -0.2847   -1.5539 C.ar    1  LIG11      -0.0277
      4 C          -0.7690   -1.2263   -1.2178 C.ar    1  LIG11      -0.0563
      5 C          -0.9794   -2.1173   -0.1675 C.ar    1  LIG11      -0.0537
      6 C          -2.1748   -2.0940    0.5531 C.ar    1  LIG11      -0.0172
      7 C          -1.4929   -3.8994    3.8236 C.ar    1  LIG11      -0.0504
      8 C          -1.3773   -2.9746    2.7829 C.ar    1  LIG11       0.0282
      9 C          -2.3437   -2.9536    1.7705 C.ar    1  LIG11      -0.0072
     10 C          -3.4614   -3.7860    1.8668 C.ar    1  LIG11      -0.0534
     11 C          -3.5885   -4.6832    2.9255 C.ar    1  LIG11      -0.0611
     12 C          -2.5924   -4.7528    3.8967 C.ar    1  LIG11      -0.0611
     13 N           0.8269   -0.1518    2.7322 N.ar    1  LIG11      -0.0464
     14 N           1.6264   -1.0877    3.1201 N.ar    1  LIG11      -0.0229
     15 N           0.9521   -2.2633    3.2075 N.ar    1  LIG11      -0.1084
     16 C          -0.2873   -1.9948    2.8275 C.ar    1  LIG11       0.1799
     17 N          -0.3861   -0.7036    2.5388 N.ar    1  LIG11      -0.2388
     18 H          -4.1506   -1.2032    0.6903 H       1  LIG11       0.0624
     19 H          -3.7715    0.3817   -1.1689 H       1  LIG11       0.0621
     20 H           0.1973   -1.2412   -1.7497 H       1  LIG11       0.0621
     21 H          -0.1853   -2.8364    0.0964 H       1  LIG11       0.0624
     22 H          -0.7333   -3.9369    4.6229 H       1  LIG11       0.0625
     23 H          -4.2322   -3.7766    1.0776 H       1  LIG11       0.0624
     24 H          -4.4662   -5.3495    2.9850 H       1  LIG11       0.0618
     25 H          -2.6824   -5.4702    4.7305 H       1  LIG11       0.0618
     26 H          -1.2277   -0.2088    2.2622 H       1  LIG11       0.1923
     27 C          -2.5504    2.9937   -1.9186 C.ar    1  LIG11       0.0691
     28 C          -2.1989    4.0172   -1.0786 C.ar    1  LIG11       0.0893
     29 N          -0.9530    3.7499   -0.5277 N.ar    1  LIG11      -0.2323
     30 C          -0.5762    2.5808   -1.0526 C.ar    1  LIG11       0.1111
     31 N          -1.4928    2.1002   -1.9162 N.ar    1  LIG11      -0.3231
     32 C          -3.0434    5.0971   -0.8505 C.ar    1  LIG11      -0.0342
     33 C          -4.2740    5.1145   -1.5097 C.ar    1  LIG11      -0.0596
     34 C          -4.6354    4.0708   -2.3662 C.ar    1  LIG11      -0.0597
     35 C          -3.7730    2.9934   -2.5812 C.ar    1  LIG11      -0.0360
     36 H          -4.9675    5.9578   -1.3498 H       1  LIG11       0.0618
     37 C           0.7320    1.9443   -0.6755 C.3     1  LIG11       0.0056
     38 H           0.5183    0.9452   -0.2317 H       1  LIG11       0.0343
     39 H           1.3241    1.7901   -1.6077 H       1  LIG11       0.0343
     40 C           1.5631    2.7571    0.3294 C.3     1  LIG11      -0.0465
     41 H           1.7649    3.7747   -0.0838 H       1  LIG11       0.0269
     42 H           0.9829    2.8824    1.2757 H       1  LIG11       0.0269
     43 C           2.9027    2.0711    0.6447 C.3     1  LIG11      -0.0555
     44 H           2.7176    1.0368    1.0219 H       1  LIG11       0.0263
     45 H           3.5045    1.9772   -0.2916 H       1  LIG11       0.0263
     46 C          -1.4551    0.8053   -2.5574 C.3     1  LIG11       0.0500
     47 H          -0.4564    0.6686   -3.0322 H       1  LIG11       0.0542
     48 H          -2.1967    0.7489   -3.3863 H       1  LIG11       0.0542
     49 H          -4.0610    2.1713   -3.2563 H       1  LIG11       0.0639
     50 C           3.7107    2.8503    1.6906 C.3     1  LIG11      -0.0653
     51 H           4.6809    2.3442    1.9050 H       1  LIG11       0.0230
     52 H           3.9374    3.8826    1.3363 H       1  LIG11       0.0230
     53 H           3.1516    2.9309    2.6516 H       1  LIG11       0.0230
     54 H          -2.7485    5.9096   -0.1657 H       1  LIG11       0.0639
     55 H          -5.6126    4.0974   -2.8780 H       1  LIG11       0.0618
@<TRIPOS>BOND
     1    48    46    1
     2    49    35    1
     3    47    46    1
     4    55    34    1
     5    35    34   ar
     6    35    27   ar
     7    46    31    1
     8    46     3    1
     9    34    33   ar
    10    27    31   ar
    11    27    28   ar
    12    31    30   ar
    13    20     4    1
    14    39    37    1
    15     3     4   ar
    16     3     2   ar
    17    33    36    1
    18    33    32   ar
    19     4     5   ar
    20    19     2    1
    21    28    32   ar
    22    28    29   ar
    23    30    37    1
    24    30    29   ar
    25     2     1   ar
    26    32    54    1
    27    37    38    1
    28    37    40    1
    29    45    43    1
    30     5    21    1
    31     5     6   ar
    32    41    40    1
    33     1     6   ar
    34     1    18    1
    35    40    43    1
    36    40    42    1
    37     6     9    1
    38    43    44    1
    39    43    50    1
    40    23    10    1
    41    52    50    1
    42    50    51    1
    43    50    53    1
    44     9    10   ar
    45     9     8   ar
    46    10    11   ar
    47    26    17    1
    48    17    13   ar
    49    17    16   ar
    50    13    14   ar
    51     8    16    1
    52     8     7   ar
    53    16    15   ar
    54    11    24    1
    55    11    12   ar
    56    14    15   ar
    57     7    12   ar
    58     7    22    1
    59    12    25    1
