@<TRIPOS>MOLECULE
cpd19
 52 56 0 0 0
SMALL
GASTEIGER
Energy = 0

@<TRIPOS>ATOM
      1 C          -3.2411   -1.0401    0.3193 C.ar    1  LIG11      -0.0536
      2 C          -3.1197   -0.2097   -0.7940 C.ar    1  LIG11      -0.0548
      3 C          -2.0239   -0.3280   -1.6507 C.ar    1  LIG11      -0.0104
      4 C          -1.0593   -1.3005   -1.3825 C.ar    1  LIG11      -0.0548
      5 C          -1.1816   -2.1312   -0.2705 C.ar    1  LIG11      -0.0536
      6 C          -2.2589   -1.9897    0.6065 C.ar    1  LIG11      -0.0172
      7 C          -1.3369   -3.8949    3.7660 C.ar    1  LIG11      -0.0504
      8 C          -1.2568   -2.9809    2.7123 C.ar    1  LIG11       0.0282
      9 C          -2.3475   -2.8299    1.8472 C.ar    1  LIG11      -0.0072
     10 C          -3.5318   -3.5242    2.1078 C.ar    1  LIG11      -0.0534
     11 C          -3.6171   -4.4098    3.1803 C.ar    1  LIG11      -0.0611
     12 C          -2.5102   -4.6091    4.0016 C.ar    1  LIG11      -0.0611
     13 H          -4.0943   -0.8987    1.0042 H       1  LIG11       0.0624
     14 H          -3.8821    0.5665   -0.9761 H       1  LIG11       0.0622
     15 H          -0.1820   -1.4027   -2.0432 H       1  LIG11       0.0622
     16 H          -0.4167   -2.9057   -0.0923 H       1  LIG11       0.0624
     17 H          -0.4827   -4.0335    4.4505 H       1  LIG11       0.0625
     18 H          -4.3997   -3.4179    1.4351 H       1  LIG11       0.0624
     19 H          -4.5520   -4.9657    3.3675 H       1  LIG11       0.0618
     20 H          -2.5679   -5.3183    4.8453 H       1  LIG11       0.0618
     21 C          -1.8276    0.6303   -2.7984 C.3     1  LIG11       0.1147
     22 H          -1.4789    0.0807   -3.7024 H       1  LIG11       0.0748
     23 N          -1.6217    4.1031    0.7393 N.ar    1  LIG11      -0.2514
     24 C          -0.7068    3.1404    0.8318 C.ar    1  LIG11       0.0452
     25 C          -0.3982    2.2700   -0.2259 C.ar    1  LIG11       0.0020
     26 C          -1.0957    2.3875   -1.4402 C.ar    1  LIG11       0.1318
     27 H           0.3379    1.4608   -0.0913 H       1  LIG11       0.0672
     28 C          -3.7070    5.6777   -1.7468 C.ar    1  LIG11      -0.0597
     29 C          -3.0996    5.3557   -0.5349 C.ar    1  LIG11      -0.0356
     30 C          -2.2045    4.2868   -0.4456 C.ar    1  LIG11       0.0748
     31 C          -1.9519    3.5001   -1.5772 C.ar    1  LIG11       0.0421
     32 C          -2.5138    3.8681   -2.8027 C.ar    1  LIG11      -0.0491
     33 C          -3.3986    4.9417   -2.8879 C.ar    1  LIG11      -0.0610
     34 H          -4.4103    6.5260   -1.8076 H       1  LIG11       0.0618
     35 H          -3.3250    5.9670    0.3565 H       1  LIG11       0.0639
     36 O          -0.8167    1.5648   -2.4912 O.3     1  LIG11      -0.4867
     37 C          -0.0339    3.0294    2.1793 C.3     1  LIG11      -0.0131
     38 H          -0.2237    2.0109    2.5913 H       1  LIG11       0.0326
     39 H          -0.4846    3.7543    2.8994 H       1  LIG11       0.0326
     40 C           1.4750    3.2906    2.0907 C.3     1  LIG11      -0.0598
     41 H           1.6807    4.3066    1.6803 H       1  LIG11       0.0233
     42 H          -2.7691    1.1585   -3.0722 H       1  LIG11       0.0748
     43 H          -2.2495    3.3367   -3.7318 H       1  LIG11       0.0625
     44 H          -3.8490    5.2132   -3.8583 H       1  LIG11       0.0618
     45 H           1.9863    2.5459    1.4381 H       1  LIG11       0.0233
     46 C          -0.0571   -2.1449    2.5992 C.ar    1  LIG11       0.1799
     47 N           1.1757   -2.5536    2.8554 N.ar    1  LIG11      -0.1084
     48 N           1.9735   -1.4758    2.6402 N.ar    1  LIG11      -0.0229
     49 N           1.2552   -0.4611    2.2936 N.ar    1  LIG11      -0.0464
     50 N          -0.0309   -0.8602    2.2706 N.ar    1  LIG11      -0.2388
     51 H          -0.8343   -0.2792    2.0566 H       1  LIG11       0.1923
     52 H           1.9490    3.2283    3.0982 H       1  LIG11       0.0233
@<TRIPOS>BOND
     1    44    33    1
     2    43    32    1
     3    22    21    1
     4    42    21    1
     5    33    32   ar
     6    33    28   ar
     7    32    31   ar
     8    21    36    1
     9    21     3    1
    10    36    26    1
    11    15     4    1
    12    34    28    1
    13    28    29   ar
    14     3     4   ar
    15     3     2   ar
    16    31    26   ar
    17    31    30   ar
    18    26    25   ar
    19     4     5   ar
    20    14     2    1
    21     2     1   ar
    22    29    30   ar
    23    29    35    1
    24    30    23   ar
    25     5    16    1
    26     5     6   ar
    27    25    27    1
    28    25    24   ar
    29     1     6   ar
    30     1    13    1
    31     6     9    1
    32    23    24   ar
    33    24    37    1
    34    18    10    1
    35    45    40    1
    36    41    40    1
    37     9    10   ar
    38     9     8   ar
    39    51    50    1
    40    40    37    1
    41    40    52    1
    42    10    11   ar
    43    37    38    1
    44    37    39    1
    45    50    49   ar
    46    50    46   ar
    47    49    48   ar
    48    46     8    1
    49    46    47   ar
    50    48    47   ar
    51     8     7   ar
    52    11    19    1
    53    11    12   ar
    54     7    12   ar
    55     7    17    1
    56    12    20    1
