@<TRIPOS>MOLECULE
cpd11
 54 56 0 0 0
SMALL
GASTEIGER
Energy = 0

@<TRIPOS>ATOM
      1 C          -0.7730    2.6052   -1.0601 C.ar    1  LIG11       0.1119
      2 N          -1.0351    3.8767   -0.7541 N.ar    1  LIG11      -0.2205
      3 C          -2.1815    4.2063   -1.4649 C.ar    1  LIG11       0.1527
      4 C          -2.5945    3.1172   -2.1911 C.ar    1  LIG11       0.0831
      5 CL         -2.9379    5.7431   -1.4371 Cl      1  LIG11      -0.0600
      6 C          -3.7770    3.0158   -3.1137 C.3     1  LIG11       0.0872
      7 O          -3.3699    2.8473   -4.4553 O.3     1  LIG11      -0.3889
      8 C           0.4078    1.8887   -0.4675 C.3     1  LIG11       0.0057
      9 C           1.3206    2.7810    0.3880 C.3     1  LIG11      -0.0465
     10 C           2.5089    1.9922    0.9625 C.3     1  LIG11      -0.0555
     11 N          -1.6788    2.1088   -1.9233 N.ar    1  LIG11      -0.3239
     12 C          -1.6784    0.7700   -2.4743 C.3     1  LIG11       0.0498
     13 C          -1.8390   -0.2576   -1.3812 C.ar    1  LIG11      -0.0277
     14 C          -2.9473   -0.2085   -0.5336 C.ar    1  LIG11      -0.0563
     15 C          -3.0576   -1.0879    0.5423 C.ar    1  LIG11      -0.0537
     16 C          -2.0546   -2.0251    0.7954 C.ar    1  LIG11      -0.0171
     17 C          -0.9786   -2.1170   -0.0894 C.ar    1  LIG11      -0.0537
     18 C          -0.8729   -1.2432   -1.1701 C.ar    1  LIG11      -0.0563
     19 C          -2.1411   -2.9344    1.9864 C.ar    1  LIG11      -0.0037
     20 C          -3.3000   -3.6955    2.1508 C.ar    1  LIG11      -0.0532
     21 C          -3.3677   -4.6666    3.1458 C.ar    1  LIG11      -0.0609
     22 C          -2.2755   -4.8744    3.9839 C.ar    1  LIG11      -0.0580
     23 C          -1.1236   -4.0909    3.8699 C.ar    1  LIG11      -0.0359
     24 C          -1.0711   -3.1049    2.8740 C.ar    1  LIG11       0.0694
     25 H          -4.4025    2.1369   -2.8284 H       1  LIG11       0.0623
     26 H          -4.4235    3.9234   -3.0662 H       1  LIG11       0.0623
     27 H          -2.9840    3.6565   -4.7472 H       1  LIG11       0.2099
     28 H           0.0257    1.0564    0.1674 H       1  LIG11       0.0343
     29 H           1.0022    1.4459   -1.3006 H       1  LIG11       0.0343
     30 H           1.7065    3.6251   -0.2331 H       1  LIG11       0.0269
     31 H           0.7337    3.2195    1.2310 H       1  LIG11       0.0269
     32 H           3.1057    1.5522    0.1272 H       1  LIG11       0.0263
     33 H          -2.5080    0.6284   -3.2025 H       1  LIG11       0.0542
     34 H          -0.7313    0.6247   -3.0435 H       1  LIG11       0.0542
     35 H          -3.7317    0.5495   -0.6972 H       1  LIG11       0.0621
     36 H          -3.9215   -1.0009    1.2228 H       1  LIG11       0.0624
     37 H          -0.2034   -2.8883    0.0572 H       1  LIG11       0.0624
     38 H           0.0004   -1.3172   -1.8394 H       1  LIG11       0.0621
     39 H          -4.1515   -3.5779    1.4590 H       1  LIG11       0.0624
     40 H          -4.2767   -5.2825    3.2571 H       1  LIG11       0.0618
     41 H          -2.3432   -5.6587    4.7565 H       1  LIG11       0.0620
     42 C           0.0847   -2.1423    2.8144 C.2     1  LIG11       0.3377
     43 O          -0.0794   -0.8466    2.5173 O.3     1  LIG11      -0.4771
     44 O           1.2248   -2.4452    3.0712 O.2     1  LIG11      -0.2451
     45 H          -0.9803   -0.5488    2.4908 H       1  LIG11       0.2954
     46 H           2.1313    1.1435    1.5825 H       1  LIG11       0.0263
     47 C          -0.0046   -4.3029    4.8626 C.3     1  LIG11      -0.0389
     48 H           0.2574   -3.3506    5.3776 H       1  LIG11       0.0278
     49 H          -0.2764   -5.0276    5.6632 H       1  LIG11       0.0278
     50 H           0.8972   -4.7101    4.3516 H       1  LIG11       0.0278
     51 C           3.4199    2.8779    1.8225 C.3     1  LIG11      -0.0653
     52 H           4.2766    2.2929    2.2314 H       1  LIG11       0.0230
     53 H           3.8393    3.7217    1.2269 H       1  LIG11       0.0230
     54 H           2.8623    3.3099    2.6856 H       1  LIG11       0.0230
@<TRIPOS>BOND
     1    27     7    1
     2     7     6    1
     3    33    12    1
     4     6    26    1
     5     6    25    1
     6     6     4    1
     7    34    12    1
     8    12    11    1
     9    12    13    1
    10     4    11   ar
    11     4     3   ar
    12    11     1   ar
    13    38    18    1
    14     3     5    1
    15     3     2   ar
    16    13    18   ar
    17    13    14   ar
    18    29     8    1
    19    18    17   ar
    20     1     2   ar
    21     1     8    1
    22    35    14    1
    23    14    15   ar
    24     8    28    1
    25     8     9    1
    26    30     9    1
    27    17    37    1
    28    17    16   ar
    29    32    10    1
    30     9    10    1
    31     9    31    1
    32    15    16   ar
    33    15    36    1
    34    16    19    1
    35    10    46    1
    36    10    51    1
    37    53    51    1
    38    39    20    1
    39    51    52    1
    40    51    54    1
    41    19    20   ar
    42    19    24   ar
    43    20    21   ar
    44    45    43    1
    45    43    42    1
    46    42    24    1
    47    42    44    2
    48    24    23   ar
    49    21    40    1
    50    21    22   ar
    51    23    22   ar
    52    23    47    1
    53    22    41    1
    54    50    47    1
    55    47    48    1
    56    47    49    1
