@<TRIPOS>MOLECULE
cpd10
 48 50 0 0 0
SMALL
GASTEIGER
Energy = 0

@<TRIPOS>ATOM
      1 C          -0.7513    2.9141   -1.1012 C.ar    1  LIG11       0.0198
      2 C          -1.1718    4.1447   -0.7725 C.ar    1  LIG11      -0.0401
      3 C          -2.4098    4.2926   -1.5151 C.ar    1  LIG11      -0.0295
      4 C          -2.5248    3.1249   -2.1646 C.ar    1  LIG11       0.1273
      5 C           0.5023    2.2666   -0.5562 C.3     1  LIG11      -0.0125
      6 C           1.2818    3.0971    0.4763 C.3     1  LIG11      -0.0506
      7 C           2.5129    2.3396    0.9951 C.3     1  LIG11      -0.0649
      8 N          -1.5478    2.4045   -1.9080 N.ar    1  LIG11      -0.3344
      9 C          -1.3460    1.0519   -2.4458 C.3     1  LIG11       0.0487
     10 C          -1.6564   -0.0114   -1.4162 C.ar    1  LIG11      -0.0277
     11 C          -2.8348    0.0337   -0.6687 C.ar    1  LIG11      -0.0563
     12 C          -3.0637   -0.8826    0.3566 C.ar    1  LIG11      -0.0537
     13 C          -2.1173   -1.8642    0.6553 C.ar    1  LIG11      -0.0171
     14 C          -0.9772   -1.9610   -0.1443 C.ar    1  LIG11      -0.0537
     15 C          -0.7505   -1.0457   -1.1703 C.ar    1  LIG11      -0.0563
     16 C          -2.3189   -2.7965    1.8144 C.ar    1  LIG11      -0.0039
     17 C          -3.5347   -3.4770    1.9251 C.ar    1  LIG11      -0.0532
     18 C          -3.7135   -4.4696    2.8872 C.ar    1  LIG11      -0.0611
     19 C          -2.6683   -4.7994    3.7468 C.ar    1  LIG11      -0.0609
     20 C          -1.4628   -4.1050    3.6667 C.ar    1  LIG11      -0.0472
     21 C          -1.3004   -3.0801    2.7320 C.ar    1  LIG11       0.0665
     22 H           0.2187    1.3072   -0.0661 H       1  LIG11       0.0327
     23 H           1.1863    2.0368   -1.4064 H       1  LIG11       0.0327
     24 H           1.6183    4.0583    0.0168 H       1  LIG11       0.0266
     25 H           0.6221    3.3407    1.3444 H       1  LIG11       0.0266
     26 H           3.2147    2.0942    0.1646 H       1  LIG11       0.0230
     27 H           3.0727    2.9495    1.7421 H       1  LIG11       0.0230
     28 H          -1.9401    0.8460   -3.3607 H       1  LIG11       0.0541
     29 H          -0.2959    0.9616   -2.8075 H       1  LIG11       0.0541
     30 H          -3.5858    0.8165   -0.8629 H       1  LIG11       0.0621
     31 H          -3.9767   -0.7859    0.9680 H       1  LIG11       0.0624
     32 H          -0.2457   -2.7691    0.0258 H       1  LIG11       0.0624
     33 H           0.1719   -1.1292   -1.7692 H       1  LIG11       0.0621
     34 H          -4.3525   -3.2777    1.2119 H       1  LIG11       0.0624
     35 H          -4.6732   -5.0106    2.9526 H       1  LIG11       0.0618
     36 H          -2.8008   -5.5959    4.4990 H       1  LIG11       0.0618
     37 H          -0.6591   -4.3467    4.3829 H       1  LIG11       0.0626
     38 C          -0.0428   -2.2537    2.7955 C.2     1  LIG11       0.3374
     39 O          -0.0577   -0.9358    2.5570 O.3     1  LIG11      -0.4771
     40 O           1.0129   -2.7680    3.0747 O.2     1  LIG11      -0.2451
     41 H          -0.9842   -0.6682    2.4793 H       1  LIG11       0.2954
     42 H           2.2198    1.3845    1.4903 H       1  LIG11       0.0230
     43 H          -0.7210    4.8811   -0.0885 H       1  LIG11       0.0635
     44 H          -3.0912    5.1595   -1.5076 H       1  LIG11       0.0641
     45 C          -3.7142    2.8870   -3.0167 C.2     1  LIG11       0.3535
     46 O          -4.5844    3.8788   -3.2156 O.3     1  LIG11      -0.4761
     47 O          -3.9654    1.8347   -3.5506 O.2     1  LIG11      -0.2435
     48 H          -5.2071    3.3931   -3.7831 H       1  LIG11       0.2955
@<TRIPOS>BOND
     1    48    46    1
     2    47    45    2
     3    28     9    1
     4    46    45    1
     5    45     4    1
     6    29     9    1
     7     9     8    1
     8     9    10    1
     9     4     8   ar
    10     4     3   ar
    11     8     1   ar
    12    33    15    1
    13     3    44    1
    14     3     2   ar
    15    10    15   ar
    16    10    11   ar
    17    23     5    1
    18    15    14   ar
    19     1     2   ar
    20     1     5    1
    21    30    11    1
    22     2    43    1
    23    11    12   ar
    24     5    22    1
    25     5     6    1
    26    14    32    1
    27    14    13   ar
    28    24     6    1
    29    26     7    1
    30    12    13   ar
    31    12    31    1
    32     6     7    1
    33     6    25    1
    34    13    16    1
    35     7    42    1
    36     7    27    1
    37    34    17    1
    38    16    17   ar
    39    16    21   ar
    40    17    18   ar
    41    41    39    1
    42    39    38    1
    43    21    38    1
    44    21    20   ar
    45    38    40    2
    46    18    35    1
    47    18    19   ar
    48    20    19   ar
    49    20    37    1
    50    19    36    1
