@<TRIPOS>MOLECULE
cpd1
 53 56 0 0 0
SMALL
GASTEIGER
Energy = 0

@<TRIPOS>ATOM
      1 C          -0.7067    2.6446   -1.0745 C.ar    1  LIG11       0.1119
      2 N          -1.0274    3.8793   -0.6852 N.ar    1  LIG11      -0.2205
      3 C          -2.2147    4.1839   -1.3374 C.ar    1  LIG11       0.1527
      4 C          -2.5926    3.1175   -2.1144 C.ar    1  LIG11       0.0831
      5 CL         -3.0511    5.6722   -1.1951 Cl      1  LIG11      -0.0600
      6 C          -3.7966    3.0081   -3.0085 C.3     1  LIG11       0.0872
      7 O          -3.4230    2.9579   -4.3692 O.3     1  LIG11      -0.3889
      8 C           0.5421    1.9700   -0.5796 C.3     1  LIG11       0.0057
      9 C           1.4345    2.8657    0.2937 C.3     1  LIG11      -0.0465
     10 C           2.7262    2.1455    0.7146 C.3     1  LIG11      -0.0555
     11 C           3.6001    3.0224    1.6209 C.3     1  LIG11      -0.0653
     12 N          -1.6129    2.1497   -1.9384 N.ar    1  LIG11      -0.3239
     13 C          -1.5868    0.8257   -2.5226 C.3     1  LIG11       0.0498
     14 C          -1.8189   -0.2254   -1.4644 C.ar    1  LIG11      -0.0277
     15 C          -3.0130   -0.2422   -0.7412 C.ar    1  LIG11      -0.0563
     16 C          -3.2071   -1.1572    0.2923 C.ar    1  LIG11      -0.0537
     17 C          -2.1989   -2.0591    0.6356 C.ar    1  LIG11      -0.0172
     18 C          -1.0257   -2.0788   -0.1210 C.ar    1  LIG11      -0.0537
     19 C          -0.8406   -1.1758   -1.1663 C.ar    1  LIG11      -0.0563
     20 C          -2.3655   -2.9822    1.8064 C.ar    1  LIG11      -0.0072
     21 C          -3.5065   -3.7848    1.8812 C.ar    1  LIG11      -0.0534
     22 C          -3.6364   -4.7433    2.8844 C.ar    1  LIG11      -0.0611
     23 C          -2.6189   -4.9060    3.8215 C.ar    1  LIG11      -0.0611
     24 C          -1.4946   -4.0840    3.7722 C.ar    1  LIG11      -0.0504
     25 C          -1.3756   -3.0987    2.7891 C.ar    1  LIG11       0.0282
     26 C          -0.2569   -2.1547    2.8690 C.ar    1  LIG11       0.1799
     27 N           0.9823   -2.4794    3.2026 N.ar    1  LIG11      -0.1084
     28 N           1.6853   -1.3176    3.1778 N.ar    1  LIG11      -0.0229
     29 N           0.9024   -0.3383    2.8715 N.ar    1  LIG11      -0.0464
     30 N          -0.3281   -0.8455    2.6677 N.ar    1  LIG11      -0.2388
     31 H          -4.3637    2.0772   -2.7722 H       1  LIG11       0.0623
     32 H          -4.4920    3.8705   -2.8790 H       1  LIG11       0.0623
     33 H          -3.0846    3.8042   -4.6105 H       1  LIG11       0.2099
     34 H           0.2449    1.0725    0.0104 H       1  LIG11       0.0343
     35 H           1.1246    1.6260   -1.4658 H       1  LIG11       0.0343
     36 H           1.7043    3.7910   -0.2705 H       1  LIG11       0.0269
     37 H           0.8717    3.1759    1.2071 H       1  LIG11       0.0269
     38 H           2.4723    1.2015    1.2531 H       1  LIG11       0.0263
     39 H           3.3090    1.8595   -0.1942 H       1  LIG11       0.0263
     40 H           4.5336    2.4881    1.9148 H       1  LIG11       0.0230
     41 H           3.8967    3.9644    1.1041 H       1  LIG11       0.0230
     42 H           3.0594    3.2981    2.5559 H       1  LIG11       0.0230
     43 H          -2.3674    0.7135   -3.3079 H       1  LIG11       0.0542
     44 H          -0.6091    0.6828   -3.0379 H       1  LIG11       0.0542
     45 H          -3.8056    0.4892   -0.9693 H       1  LIG11       0.0621
     46 H          -4.1432   -1.1217    0.8749 H       1  LIG11       0.0624
     47 H          -0.2358   -2.8170    0.0980 H       1  LIG11       0.0624
     48 H           0.1036   -1.1985   -1.7359 H       1  LIG11       0.0621
     49 H          -4.2961   -3.7031    1.1149 H       1  LIG11       0.0624
     50 H          -4.5336   -5.3846    2.9254 H       1  LIG11       0.0618
     51 H          -2.7111   -5.6722    4.6105 H       1  LIG11       0.0618
     52 H          -0.7165   -4.1957    4.5465 H       1  LIG11       0.0625
     53 H          -1.1633   -0.3136    2.4461 H       1  LIG11       0.1923
@<TRIPOS>BOND
     1    33     7    1
     2     7     6    1
     3    43    13    1
     4    44    13    1
     5     6    32    1
     6     6    31    1
     7     6     4    1
     8    13    12    1
     9    13    14    1
    10     4    12   ar
    11     4     3   ar
    12    12     1   ar
    13    48    19    1
    14    35     8    1
    15    14    19   ar
    16    14    15   ar
    17     3     5    1
    18     3     2   ar
    19    19    18   ar
    20     1     2   ar
    21     1     8    1
    22    45    15    1
    23    15    16   ar
    24     8    34    1
    25     8     9    1
    26    36     9    1
    27    39    10    1
    28    18    47    1
    29    18    17   ar
    30    16    17   ar
    31    16    46    1
    32     9    10    1
    33     9    37    1
    34    17    20    1
    35    10    38    1
    36    10    11    1
    37    41    11    1
    38    49    21    1
    39    11    40    1
    40    11    42    1
    41    20    21   ar
    42    20    25   ar
    43    21    22   ar
    44    53    30    1
    45    30    26   ar
    46    30    29   ar
    47    25    26    1
    48    25    24   ar
    49    26    27   ar
    50    29    28   ar
    51    22    50    1
    52    22    23   ar
    53    28    27   ar
    54    24    23   ar
    55    24    52    1
    56    23    51    1
