@<TRIPOS>MOLECULE
cpd17
 53 56 0 0 0
SMALL
GASTEIGER
Energy = 0

@<TRIPOS>ATOM
      1 C          -3.0898   -1.0740    0.3335 C.ar    1  LIG11      -0.0537
      2 C          -2.9121   -0.2147   -0.7496 C.ar    1  LIG11      -0.0563
      3 C          -1.7445   -0.2659   -1.5134 C.ar    1  LIG11      -0.0277
      4 C          -0.7982   -1.2521   -1.2288 C.ar    1  LIG11      -0.0563
      5 C          -0.9737   -2.1083   -0.1433 C.ar    1  LIG11      -0.0537
      6 C          -2.0999   -1.9975    0.6742 C.ar    1  LIG11      -0.0171
      7 C          -1.2773   -3.9739    3.8245 C.ar    1  LIG11      -0.0472
      8 C          -1.1848   -3.0152    2.8133 C.ar    1  LIG11       0.0665
      9 C          -2.2354   -2.8480    1.9034 C.ar    1  LIG11      -0.0039
     10 C          -3.4156   -3.5718    2.0948 C.ar    1  LIG11      -0.0532
     11 C          -3.5257   -4.4966    3.1317 C.ar    1  LIG11      -0.0611
     12 C          -2.4471   -4.7139    3.9860 C.ar    1  LIG11      -0.0609
     13 H          -3.9935   -0.9708    0.9576 H       1  LIG11       0.0624
     14 H          -3.6869    0.5364   -0.9777 H       1  LIG11       0.0621
     15 H           0.1188   -1.3340   -1.8361 H       1  LIG11       0.0621
     16 H          -0.2092   -2.8760    0.0642 H       1  LIG11       0.0624
     17 H          -0.4472   -4.1241    4.5355 H       1  LIG11       0.0626
     18 H          -4.2575   -3.4621    1.3903 H       1  LIG11       0.0624
     19 H          -4.4573   -5.0738    3.2618 H       1  LIG11       0.0618
     20 H          -2.5254   -5.4574    4.7979 H       1  LIG11       0.0618
     21 C          -2.5323    3.0461   -2.1894 C.ar    1  LIG11       0.0691
     22 C          -2.1937    4.1216   -1.4112 C.ar    1  LIG11       0.0893
     23 N          -1.0218    3.8382   -0.7226 N.ar    1  LIG11      -0.2323
     24 C          -0.6705    2.6095   -1.1108 C.ar    1  LIG11       0.1111
     25 N          -1.5363    2.1016   -2.0100 N.ar    1  LIG11      -0.3231
     26 C          -2.9866    5.2614   -1.3564 C.ar    1  LIG11      -0.0342
     27 C          -4.1518    5.2843   -2.1253 C.ar    1  LIG11      -0.0596
     28 C          -4.5020    4.1861   -2.9159 C.ar    1  LIG11      -0.0597
     29 C          -3.6928    3.0485   -2.9557 C.ar    1  LIG11      -0.0360
     30 H          -4.8030    6.1749   -2.1041 H       1  LIG11       0.0618
     31 C           0.5447    1.9312   -0.5433 C.3     1  LIG11       0.0056
     32 H           0.2093    1.0153   -0.0050 H       1  LIG11       0.0343
     33 H           1.1973    1.6154   -1.3905 H       1  LIG11       0.0343
     34 C           1.3556    2.8007    0.4301 C.3     1  LIG11      -0.0465
     35 H           1.7068    3.7220   -0.0946 H       1  LIG11       0.0269
     36 H           0.7043    3.1199    1.2793 H       1  LIG11       0.0269
     37 C           2.5700    2.0420    0.9906 C.3     1  LIG11      -0.0555
     38 H           2.2255    1.1179    1.5156 H       1  LIG11       0.0263
     39 H           3.2307    1.7192    0.1499 H       1  LIG11       0.0263
     40 C          -1.4869    0.7732   -2.5771 C.3     1  LIG11       0.0500
     41 H          -0.4895    0.6315   -3.0540 H       1  LIG11       0.0542
     42 H          -2.2393    0.6519   -3.3885 H       1  LIG11       0.0542
     43 H          -2.7034    6.1161   -0.7197 H       1  LIG11       0.0639
     44 H          -5.4288    4.2171   -3.5141 H       1  LIG11       0.0618
     45 C           3.3803    2.9041    1.9677 C.3     1  LIG11      -0.0653
     46 H           4.2572    2.3414    2.3653 H       1  LIG11       0.0230
     47 H           3.7655    3.8234    1.4688 H       1  LIG11       0.0230
     48 H           2.7581    3.2194    2.8372 H       1  LIG11       0.0230
     49 H          -3.9754    2.1822   -3.5752 H       1  LIG11       0.0639
     50 C           0.0321   -2.1286    2.7820 C.2     1  LIG11       0.3374
     51 O          -0.0562   -0.8318    2.4584 O.3     1  LIG11      -0.4771
     52 O           1.1198   -2.5726    3.0584 O.2     1  LIG11      -0.2451
     53 H          -0.9972   -0.6144    2.4015 H       1  LIG11       0.2954
@<TRIPOS>BOND
     1    49    29    1
     2    44    28    1
     3    42    40    1
     4    41    40    1
     5    29    28   ar
     6    29    21   ar
     7    28    27   ar
     8    40    25    1
     9    40     3    1
    10    21    25   ar
    11    21    22   ar
    12    27    30    1
    13    27    26   ar
    14    25    24   ar
    15    15     4    1
    16     3     4   ar
    17     3     2   ar
    18    22    26   ar
    19    22    23   ar
    20    33    31    1
    21    26    43    1
    22     4     5   ar
    23    24    23   ar
    24    24    31    1
    25    14     2    1
    26     2     1   ar
    27    31    32    1
    28    31    34    1
    29     5    16    1
    30     5     6   ar
    31    35    34    1
    32    39    37    1
    33     1     6   ar
    34     1    13    1
    35    34    37    1
    36    34    36    1
    37     6     9    1
    38    37    38    1
    39    37    45    1
    40    18    10    1
    41    47    45    1
    42     9    10   ar
    43     9     8   ar
    44    45    46    1
    45    45    48    1
    46    10    11   ar
    47    53    51    1
    48    51    50    1
    49    50     8    1
    50    50    52    2
    51     8     7   ar
    52    11    19    1
    53    11    12   ar
    54     7    12   ar
    55     7    17    1
    56    12    20    1
