@<TRIPOS>MOLECULE
cpd20
 53 56 0 0 0
SMALL
GASTEIGER
Energy = 0

@<TRIPOS>ATOM
      1 C          -3.0800   -1.0519    0.1769 C.ar    1  LIG11      -0.0536
      2 C          -2.9820   -0.3871   -1.0445 C.ar    1  LIG11      -0.0548
      3 C          -1.9411   -0.6769   -1.9285 C.ar    1  LIG11      -0.0104
      4 C          -1.0035   -1.6468   -1.5709 C.ar    1  LIG11      -0.0548
      5 C          -1.1029   -2.3122   -0.3503 C.ar    1  LIG11      -0.0536
      6 C          -2.1308   -2.0076    0.5445 C.ar    1  LIG11      -0.0171
      7 C          -1.1860   -3.7078    3.8226 C.ar    1  LIG11      -0.0472
      8 C          -1.1052   -2.8747    2.7047 C.ar    1  LIG11       0.0665
      9 C          -2.2183   -2.6999    1.8740 C.ar    1  LIG11      -0.0039
     10 C          -3.4339   -3.2811    2.2465 C.ar    1  LIG11      -0.0532
     11 C          -3.5269   -4.0765    3.3874 C.ar    1  LIG11      -0.0611
     12 C          -2.3956   -4.3083    4.1663 C.ar    1  LIG11      -0.0609
     13 H          -3.8902   -0.7766    0.8732 H       1  LIG11       0.0624
     14 H          -3.7193    0.3941   -1.2957 H       1  LIG11       0.0622
     15 H          -0.1676   -1.8808   -2.2514 H       1  LIG11       0.0622
     16 H          -0.3662   -3.0960   -0.1058 H       1  LIG11       0.0624
     17 H          -0.3090   -3.8635    4.4738 H       1  LIG11       0.0626
     18 H          -4.3262   -3.1660    1.6080 H       1  LIG11       0.0624
     19 H          -4.4894   -4.5426    3.6602 H       1  LIG11       0.0618
     20 H          -2.4617   -4.9509    5.0610 H       1  LIG11       0.0618
     21 C          -1.7729    0.1028   -3.2088 C.3     1  LIG11       0.1147
     22 H          -1.4969   -0.5813   -4.0435 H       1  LIG11       0.0748
     23 N          -1.1377    3.7347    0.0725 N.ar    1  LIG11      -0.2514
     24 C          -0.1897    2.8004    0.0851 C.ar    1  LIG11       0.0454
     25 C           0.0043    1.8888   -0.9649 C.ar    1  LIG11       0.0020
     26 C          -0.8509    1.9308   -2.0791 C.ar    1  LIG11       0.1318
     27 H           0.7701    1.0996   -0.8885 H       1  LIG11       0.0672
     28 C          -3.5534    5.1580   -2.1969 C.ar    1  LIG11      -0.0597
     29 C          -2.7932    4.9014   -1.0578 C.ar    1  LIG11      -0.0356
     30 C          -1.8673    3.8553   -1.0371 C.ar    1  LIG11       0.0748
     31 C          -1.7391    3.0236   -2.1574 C.ar    1  LIG11       0.0421
     32 C          -2.4541    3.3289   -3.3186 C.ar    1  LIG11      -0.0491
     33 C          -3.3689    4.3802   -3.3371 C.ar    1  LIG11      -0.0610
     34 H          -4.2798    5.9887   -2.2043 H       1  LIG11       0.0618
     35 H          -2.9217    5.5466   -0.1711 H       1  LIG11       0.0639
     36 O          -0.7161    1.0303   -3.0941 O.3     1  LIG11      -0.4867
     37 C           0.6592    2.7675    1.3338 C.3     1  LIG11      -0.0105
     38 H           0.5948    1.7479    1.7799 H       1  LIG11       0.0328
     39 H           0.2539    3.4777    2.0935 H       1  LIG11       0.0328
     40 C           2.1241    3.1265    1.0412 C.3     1  LIG11      -0.0505
     41 H           2.1726    4.1434    0.5810 H       1  LIG11       0.0266
     42 H          -2.7088    0.6269   -3.5070 H       1  LIG11       0.0748
     43 H          -2.2870    2.7674   -4.2526 H       1  LIG11       0.0625
     44 H          -3.9403    4.6018   -4.2549 H       1  LIG11       0.0618
     45 H           2.5569    2.4075    0.3047 H       1  LIG11       0.0266
     46 C           0.1753   -2.1167    2.4751 C.2     1  LIG11       0.3374
     47 O           1.2416   -2.6233    2.7268 O.2     1  LIG11      -0.2451
     48 O           0.1689   -0.8653    1.9989 O.3     1  LIG11      -0.4771
     49 H          -0.7529   -0.5720    1.9805 H       1  LIG11       0.2954
     50 C           2.9782    3.1050    2.3161 C.3     1  LIG11      -0.0649
     51 H           4.0389    3.3656    2.0919 H       1  LIG11       0.0230
     52 H           2.6011    3.8381    3.0662 H       1  LIG11       0.0230
     53 H           2.9695    2.0950    2.7876 H       1  LIG11       0.0230
@<TRIPOS>BOND
     1    44    33    1
     2    43    32    1
     3    22    21    1
     4    42    21    1
     5    33    32   ar
     6    33    28   ar
     7    32    31   ar
     8    21    36    1
     9    21     3    1
    10    36    26    1
    11    15     4    1
    12    34    28    1
    13    28    29   ar
    14    31    26   ar
    15    31    30   ar
    16    26    25   ar
    17     3     4   ar
    18     3     2   ar
    19     4     5   ar
    20    14     2    1
    21    29    30   ar
    22    29    35    1
    23     2     1   ar
    24    30    23   ar
    25    25    27    1
    26    25    24   ar
    27     5    16    1
    28     5     6   ar
    29    23    24   ar
    30    24    37    1
    31     1     6   ar
    32     1    13    1
    33    45    40    1
    34     6     9    1
    35    41    40    1
    36    40    37    1
    37    40    50    1
    38    37    38    1
    39    37    39    1
    40    18    10    1
    41     9    10   ar
    42     9     8   ar
    43    49    48    1
    44    48    46    1
    45    51    50    1
    46    10    11   ar
    47    50    53    1
    48    50    52    1
    49    46     8    1
    50    46    47    2
    51     8     7   ar
    52    11    19    1
    53    11    12   ar
    54     7    12   ar
    55     7    17    1
    56    12    20    1
