@<TRIPOS>MOLECULE
cpd24
 49 51 0 0 0
SMALL
GASTEIGER
Energy = 0

@<TRIPOS>ATOM
      1 C          -0.8497    2.6099   -1.0150 C.ar    1  LIG11       0.1119
      2 N          -1.1208    3.8808   -0.7149 N.ar    1  LIG11      -0.2205
      3 C          -2.2493    4.2105   -1.4536 C.ar    1  LIG11       0.1527
      4 C          -2.6457    3.1202   -2.1870 C.ar    1  LIG11       0.0831
      5 CL         -3.0057    5.7473   -1.4452 Cl      1  LIG11      -0.0600
      6 C          -3.8067    3.0172   -3.1364 C.3     1  LIG11       0.0872
      7 O          -3.3694    2.8308   -4.4661 O.3     1  LIG11      -0.3889
      8 C           0.3154    1.8937   -0.3919 C.3     1  LIG11       0.0057
      9 C           1.2114    2.7885    0.4785 C.3     1  LIG11      -0.0465
     10 C           2.3811    1.9983    1.0883 C.3     1  LIG11      -0.0555
     11 N          -1.7379    2.1114   -1.8952 N.ar    1  LIG11      -0.3239
     12 C          -1.7274    0.7710   -2.4423 C.3     1  LIG11       0.0498
     13 C          -1.8960   -0.2530   -1.3462 C.ar    1  LIG11      -0.0276
     14 C          -3.0002   -0.1922   -0.4949 C.ar    1  LIG11      -0.0549
     15 C          -3.1085   -1.0589    0.5913 C.ar    1  LIG11      -0.0375
     16 C          -2.1123   -2.0036    0.8541 C.ar    1  LIG11       0.0468
     17 C          -1.0440   -2.1070   -0.0414 C.ar    1  LIG11      -0.0375
     18 C          -0.9373   -1.2442   -1.1309 C.ar    1  LIG11      -0.0549
     19 H          -4.4445    2.1454   -2.8563 H       1  LIG11       0.0623
     20 H          -4.4480    3.9295   -3.1141 H       1  LIG11       0.0623
     21 H          -2.9753    3.6355   -4.7600 H       1  LIG11       0.2099
     22 H          -0.0833    1.0665    0.2395 H       1  LIG11       0.0343
     23 H           0.9269    1.4440   -1.2087 H       1  LIG11       0.0343
     24 H           1.6163    3.6259   -0.1397 H       1  LIG11       0.0269
     25 H           0.6065    3.2365    1.3037 H       1  LIG11       0.0269
     26 H           2.9949    1.5472    0.2713 H       1  LIG11       0.0263
     27 H          -2.5501    0.6230   -3.1770 H       1  LIG11       0.0542
     28 H          -0.7737    0.6272   -3.0008 H       1  LIG11       0.0542
     29 H          -3.7804    0.5698   -0.6609 H       1  LIG11       0.0621
     30 H          -3.9663   -0.9466    1.2765 H       1  LIG11       0.0638
     31 H          -0.2730   -2.8847    0.0958 H       1  LIG11       0.0638
     32 H          -0.0681   -1.3308   -1.8041 H       1  LIG11       0.0621
     33 C           0.0683   -2.2743    2.8187 C.2     1  LIG11       0.3538
     34 O           0.1679   -0.9665    2.5594 O.3     1  LIG11      -0.4761
     35 O           1.0664   -2.8870    3.1066 O.2     1  LIG11      -0.2435
     36 H          -0.7348   -0.6212    2.5983 H       1  LIG11       0.2955
     37 H           1.9837    1.1577    1.7072 H       1  LIG11       0.0263
     38 C          -2.9226   -4.2884    3.2364 C.ar    1  LIG11      -0.0430
     39 C          -3.1620   -3.4929    2.1862 C.ar    1  LIG11       0.0106
     40 N          -2.1770   -2.7850    1.9466 N.ar    1  LIG11      -0.3106
     41 C          -1.2453   -2.9556    2.7434 C.ar    1  LIG11       0.1313
     42 C          -1.5686   -3.9167    3.6229 C.ar    1  LIG11      -0.0295
     43 H          -4.0959   -3.4985    1.5956 H       1  LIG11       0.0813
     44 C           3.2769    2.8872    1.9612 C.3     1  LIG11      -0.0653
     45 H           4.1203    2.3010    2.3958 H       1  LIG11       0.0230
     46 H           3.7155    3.7224    1.3676 H       1  LIG11       0.0230
     47 H           2.7019    3.3308    2.8066 H       1  LIG11       0.0230
     48 H          -0.9751   -4.3150    4.4625 H       1  LIG11       0.0641
     49 H          -3.5820   -5.0445    3.6933 H       1  LIG11       0.0633
@<TRIPOS>BOND
     1    21     7    1
     2     7     6    1
     3    27    12    1
     4     6    20    1
     5     6    19    1
     6     6     4    1
     7    28    12    1
     8    12    11    1
     9    12    13    1
    10     4    11   ar
    11     4     3   ar
    12    11     1   ar
    13    32    18    1
    14     3     5    1
    15     3     2   ar
    16    13    18   ar
    17    13    14   ar
    18    23     8    1
    19    18    17   ar
    20     1     2   ar
    21     1     8    1
    22    29    14    1
    23    14    15   ar
    24     8    22    1
    25     8     9    1
    26    24     9    1
    27    17    31    1
    28    17    16   ar
    29    26    10    1
    30     9    10    1
    31     9    25    1
    32    15    16   ar
    33    15    30    1
    34    16    40    1
    35    10    37    1
    36    10    44    1
    37    46    44    1
    38    43    39    1
    39    40    39   ar
    40    40    41   ar
    41    44    45    1
    42    44    47    1
    43    39    38   ar
    44    34    36    1
    45    34    33    1
    46    41    33    1
    47    41    42   ar
    48    33    35    2
    49    38    42   ar
    50    38    49    1
    51    42    48    1
