@<TRIPOS>MOLECULE
cpd2
 48 50 0 0 0
SMALL
GASTEIGER
Energy = 0

@<TRIPOS>ATOM
      1 C          -0.8877    2.6257   -0.9647 C.ar    1  LIG11       0.1119
      2 N          -1.1743    3.8939   -0.6674 N.ar    1  LIG11      -0.2205
      3 C          -2.2904    4.2166   -1.4278 C.ar    1  LIG11       0.1527
      4 C          -2.6629    3.1255   -2.1724 C.ar    1  LIG11       0.0831
      5 CL         -3.0584    5.7477   -1.4316 Cl      1  LIG11      -0.0600
      6 C          -3.8030    3.0163   -3.1461 C.3     1  LIG11       0.0872
      7 O          -3.3367    2.8407   -4.4673 O.3     1  LIG11      -0.3889
      8 C           0.2714    1.9176   -0.3212 C.3     1  LIG11       0.0054
      9 C           1.1464    2.8185    0.5636 C.3     1  LIG11      -0.0491
     10 C           2.3079    2.0344    1.1902 C.3     1  LIG11      -0.0649
     11 N          -1.7538    2.1226   -1.8643 N.ar    1  LIG11      -0.3239
     12 C          -1.7173    0.7864   -2.4205 C.3     1  LIG11       0.0498
     13 C          -1.8840   -0.2484   -1.3349 C.ar    1  LIG11      -0.0277
     14 C          -3.0005   -0.2096   -0.4976 C.ar    1  LIG11      -0.0563
     15 C          -3.1106   -1.0874    0.5797 C.ar    1  LIG11      -0.0537
     16 C          -2.1022   -2.0162    0.8426 C.ar    1  LIG11      -0.0171
     17 C          -1.0205   -2.1011   -0.0362 C.ar    1  LIG11      -0.0537
     18 C          -0.9130   -1.2273   -1.1166 C.ar    1  LIG11      -0.0563
     19 C          -2.1770   -2.9079    2.0479 C.ar    1  LIG11      -0.0039
     20 C          -3.3472   -3.6382    2.2733 C.ar    1  LIG11      -0.0532
     21 C          -3.4059   -4.6001    3.2804 C.ar    1  LIG11      -0.0611
     22 C          -2.2855   -4.8485    4.0699 C.ar    1  LIG11      -0.0609
     23 C          -1.1242   -4.1029    3.8759 C.ar    1  LIG11      -0.0472
     24 C          -1.0822   -3.1082    2.8967 C.ar    1  LIG11       0.0665
     25 H          -4.4385    2.1375   -2.8833 H       1  LIG11       0.0623
     26 H          -4.4530    3.9227   -3.1328 H       1  LIG11       0.0623
     27 H          -2.9408    3.6494   -4.7474 H       1  LIG11       0.2099
     28 H          -0.1319    1.0879    0.3039 H       1  LIG11       0.0343
     29 H           0.9006    1.4719   -1.1267 H       1  LIG11       0.0343
     30 H           1.5593    3.6591   -0.0457 H       1  LIG11       0.0267
     31 H           0.5282    3.2638    1.3810 H       1  LIG11       0.0267
     32 H           2.9662    1.5944    0.4057 H       1  LIG11       0.0230
     33 H           2.9382    2.6955    1.8299 H       1  LIG11       0.0230
     34 H          -2.5294    0.6321   -3.1656 H       1  LIG11       0.0542
     35 H          -0.7553    0.6609   -2.9690 H       1  LIG11       0.0542
     36 H          -3.7894    0.5424   -0.6677 H       1  LIG11       0.0621
     37 H          -3.9769   -0.9995    1.2570 H       1  LIG11       0.0624
     38 H          -0.2416   -2.8679    0.1132 H       1  LIG11       0.0624
     39 H          -0.0339   -1.2948   -1.7792 H       1  LIG11       0.0621
     40 H          -4.2237   -3.5037    1.6170 H       1  LIG11       0.0624
     41 H          -4.3307   -5.1816    3.4368 H       1  LIG11       0.0618
     42 H          -2.3236   -5.6211    4.8571 H       1  LIG11       0.0618
     43 H          -0.2591   -4.2785    4.5377 H       1  LIG11       0.0626
     44 C           0.1304   -2.2175    2.8383 C.2     1  LIG11       0.3374
     45 O           0.0220   -0.9097    2.5710 O.3     1  LIG11      -0.4771
     46 O           1.2319   -2.6677    3.0405 O.2     1  LIG11      -0.2451
     47 H          -0.9217   -0.6961    2.5726 H       1  LIG11       0.2954
     48 H           1.9333    1.2019    1.8299 H       1  LIG11       0.0230
@<TRIPOS>BOND
     1    27     7    1
     2     7     6    1
     3    34    12    1
     4     6    26    1
     5     6    25    1
     6     6     4    1
     7    35    12    1
     8    12    11    1
     9    12    13    1
    10     4    11   ar
    11     4     3   ar
    12    11     1   ar
    13    39    18    1
    14     5     3    1
    15     3     2   ar
    16    13    18   ar
    17    13    14   ar
    18    29     8    1
    19    18    17   ar
    20     1     2   ar
    21     1     8    1
    22    36    14    1
    23    14    15   ar
    24     8    28    1
    25     8     9    1
    26    30     9    1
    27    17    38    1
    28    17    16   ar
    29    32    10    1
    30     9    10    1
    31     9    31    1
    32    15    16   ar
    33    15    37    1
    34    16    19    1
    35    10    48    1
    36    10    33    1
    37    40    20    1
    38    19    20   ar
    39    19    24   ar
    40    20    21   ar
    41    45    47    1
    42    45    44    1
    43    44    24    1
    44    44    46    2
    45    24    23   ar
    46    21    41    1
    47    21    22   ar
    48    23    22   ar
    49    23    43    1
    50    22    42    1
