@<TRIPOS>MOLECULE
cpd4
 60 62 0 0 0
SMALL
GASTEIGER
Energy = 0

@<TRIPOS>ATOM
      1 C          -2.5258    3.5686   -1.9216 C.ar    1  LIG11       0.0681
      2 C          -2.0473    4.5844   -1.1312 C.ar    1  LIG11       0.1510
      3 N          -0.8496    4.1901   -0.5507 N.ar    1  LIG11      -0.2206
      4 C          -0.6237    2.9524   -0.9922 C.ar    1  LIG11       0.1119
      5 N          -1.5972    2.5405   -1.8260 N.ar    1  LIG11      -0.3253
      6 C           0.5942    2.1810   -0.5671 C.3     1  LIG11       0.0057
      7 C           1.5654    2.9816    0.3147 C.3     1  LIG11      -0.0465
      8 C           2.7916    2.1452    0.7161 C.3     1  LIG11      -0.0555
      9 C           3.7625    2.9426    1.5971 C.3     1  LIG11      -0.0653
     10 C          -3.7804    3.5624   -2.7494 C.3     1  LIG11       0.0882
     11 C          -3.4647    3.6471   -4.2293 C.2     1  LIG11       0.3127
     12 O          -2.9198    4.8464   -4.5052 O.3     1  LIG11      -0.4677
     13 O          -3.6650    2.7704   -5.0375 O.2     1  LIG11      -0.2504
     14 C          -2.5452    5.0820   -5.8401 C.3     1  LIG11       0.0817
     15 C          -1.6709    1.2334   -2.4438 C.3     1  LIG11       0.0497
     16 C          -1.8941    0.1582   -1.4083 C.ar    1  LIG11      -0.0276
     17 C          -2.9822    0.2298   -0.5378 C.ar    1  LIG11      -0.0551
     18 C          -3.1738   -0.7434    0.4415 C.ar    1  LIG11      -0.0402
     19 C          -2.2801   -1.8087    0.5877 C.ar    1  LIG11       0.0337
     20 C          -1.2234   -1.9046   -0.3216 C.ar    1  LIG11      -0.0402
     21 C          -1.0289   -0.9319   -1.3015 C.ar    1  LIG11      -0.0551
     22 N          -2.5125   -2.7109    1.5634 N.am    1  LIG11      -0.2815
     23 C          -1.6197   -3.5675    2.1997 C.2     1  LIG11       0.2490
     24 O          -0.4276   -3.5706    1.9505 O.2     1  LIG11      -0.2698
     25 C          -2.1634   -4.5093    3.2359 C.ar    1  LIG11       0.0510
     26 C          -1.4866   -4.7933    4.4311 C.ar    1  LIG11       0.0709
     27 C          -2.0491   -5.7157    5.3201 C.ar    1  LIG11      -0.0470
     28 C          -3.2506   -6.3595    5.0317 C.ar    1  LIG11      -0.0609
     29 C          -3.9169   -6.0754    3.8432 C.ar    1  LIG11      -0.0610
     30 C          -3.3696   -5.1562    2.9511 C.ar    1  LIG11      -0.0488
     31 C          -0.2803   -4.0304    4.9303 C.2     1  LIG11       0.3375
     32 O           0.7559   -3.6639    4.1699 O.3     1  LIG11      -0.4771
     33 O          -0.2252   -3.7416    6.1022 O.2     1  LIG11      -0.2451
     34 CL         -2.7869    6.1121   -0.8987 Cl      1  LIG11      -0.0601
     35 H           0.2565    1.2786   -0.0070 H       1  LIG11       0.0343
     36 H           1.1281    1.8385   -1.4842 H       1  LIG11       0.0343
     37 H           1.9072    3.8909   -0.2365 H       1  LIG11       0.0269
     38 H           1.0389    3.3224    1.2389 H       1  LIG11       0.0269
     39 H           2.4585    1.2333    1.2684 H       1  LIG11       0.0263
     40 H           3.3268    1.8007   -0.2017 H       1  LIG11       0.0263
     41 H           4.6460    2.3239    1.8800 H       1  LIG11       0.0230
     42 H           4.1388    3.8468    1.0647 H       1  LIG11       0.0230
     43 H           3.2687    3.2782    2.5383 H       1  LIG11       0.0230
     44 H          -4.3557    2.6324   -2.5367 H       1  LIG11       0.0442
     45 H          -4.4512    4.4106   -2.4827 H       1  LIG11       0.0442
     46 H          -2.1144    6.1077   -5.8774 H       1  LIG11       0.0661
     47 H          -1.7673    4.3439   -6.1455 H       1  LIG11       0.0661
     48 H          -3.4465    5.0360   -6.4951 H       1  LIG11       0.0661
     49 H          -2.5013    1.1819   -3.1821 H       1  LIG11       0.0542
     50 H          -0.7323    1.0622   -3.0195 H       1  LIG11       0.0542
     51 H          -3.6958    1.0670   -0.6153 H       1  LIG11       0.0621
     52 H          -4.0378   -0.6448    1.1215 H       1  LIG11       0.0636
     53 H          -0.5455   -2.7730   -0.3190 H       1  LIG11       0.0636
     54 H          -0.1772   -1.0300   -1.9957 H       1  LIG11       0.0621
     55 H          -3.4602   -2.7176    1.9443 H       1  LIG11       0.1551
     56 H          -1.5422   -5.9587    6.2698 H       1  LIG11       0.0626
     57 H          -3.6747   -7.0893    5.7427 H       1  LIG11       0.0618
     58 H          -4.8663   -6.5852    3.6046 H       1  LIG11       0.0618
     59 H          -3.8900   -4.9833    1.9938 H       1  LIG11       0.0625
     60 H           0.5919   -3.9366    3.2534 H       1  LIG11       0.2954
@<TRIPOS>BOND
     1    48    14    1
     2    47    14    1
     3    46    14    1
     4    14    12    1
     5    13    11    2
     6    12    11    1
     7    11    10    1
     8    49    15    1
     9    50    15    1
    10    10    44    1
    11    10    45    1
    12    10     1    1
    13    15     5    1
    14    15    16    1
    15    54    21    1
    16     1     5   ar
    17     1     2   ar
    18     5     4   ar
    19    36     6    1
    20    16    21   ar
    21    16    17   ar
    22    21    20   ar
    23     2    34    1
    24     2     3   ar
    25     4     6    1
    26     4     3   ar
    27    51    17    1
    28     6    35    1
    29     6     7    1
    30    17    18   ar
    31    20    53    1
    32    20    19   ar
    33    37     7    1
    34    40     8    1
    35     7     8    1
    36     7    38    1
    37    18    19   ar
    38    18    52    1
    39    19    22    1
    40     8    39    1
    41     8     9    1
    42    42     9    1
    43    22    55    1
    44    22    23   am
    45     9    41    1
    46     9    43    1
    47    24    23    2
    48    59    30    1
    49    23    25    1
    50    30    25   ar
    51    30    29   ar
    52    25    26   ar
    53    60    32    1
    54    58    29    1
    55    29    28   ar
    56    32    31    1
    57    26    31    1
    58    26    27   ar
    59    31    33    2
    60    28    27   ar
    61    28    57    1
    62    27    56    1
