@<TRIPOS>MOLECULE
cpd5
 52 54 0 0 0
SMALL
GASTEIGER
Energy = 0

@<TRIPOS>ATOM
      1 C          -0.8874    2.4079   -1.0178 C.ar    1  LIG11       0.1119
      2 N          -1.1600    3.6505   -0.6167 N.ar    1  LIG11      -0.2205
      3 C          -2.2917    4.0365   -1.3215 C.ar    1  LIG11       0.1527
      4 C          -2.6862    3.0083   -2.1400 C.ar    1  LIG11       0.0831
      5 CL         -3.0390    5.5734   -1.2021 Cl      1  LIG11      -0.0600
      6 C          -3.8398    2.9857   -3.1039 C.3     1  LIG11       0.0872
      7 O          -3.3924    2.8697   -4.4382 O.3     1  LIG11      -0.3889
      8 C           0.3038    1.6672   -0.4763 C.3     1  LIG11       0.0057
      9 C           1.2030    2.5061    0.4454 C.3     1  LIG11      -0.0465
     10 C           2.3957    1.6890    0.9690 C.3     1  LIG11      -0.0555
     11 C           3.2889    2.5159    1.9031 C.3     1  LIG11      -0.0653
     12 N          -1.7897    1.9712   -1.9179 N.ar    1  LIG11      -0.3239
     13 C          -1.7381    0.7200   -2.6482 C.3     1  LIG11       0.0498
     14 C          -1.5872   -0.4573   -1.7167 C.ar    1  LIG11      -0.0275
     15 C          -2.4695   -0.6182   -0.6463 C.ar    1  LIG11      -0.0534
     16 C          -2.2523   -1.6094    0.3097 C.ar    1  LIG11      -0.0190
     17 C          -1.1593   -2.4710    0.1941 C.ar    1  LIG11       0.1285
     18 C          -0.3337   -2.3708   -0.9256 C.ar    1  LIG11      -0.0190
     19 C          -0.5431   -1.3709   -1.8735 C.ar    1  LIG11      -0.0534
     20 O          -0.8335   -3.3801    1.1630 O.3     1  LIG11      -0.4552
     21 C          -2.6172   -3.1642    4.9054 C.ar    1  LIG11      -0.0608
     22 C          -3.0650   -4.0936    3.9684 C.ar    1  LIG11      -0.0582
     23 C          -2.4407   -4.1807    2.7255 C.ar    1  LIG11      -0.0185
     24 C          -1.3711   -3.3402    2.4163 C.ar    1  LIG11       0.1424
     25 C          -0.8897   -2.4419    3.3725 C.ar    1  LIG11       0.1009
     26 C          -1.5322   -2.3400    4.6083 C.ar    1  LIG11      -0.0442
     27 C           0.3164   -1.5863    3.0869 C.2     1  LIG11       0.3404
     28 O           1.1643   -1.8874    2.0949 O.3     1  LIG11      -0.4770
     29 O           0.5534   -0.6070    3.7515 O.2     1  LIG11      -0.2450
     30 H          -4.4972    2.1119   -2.8814 H       1  LIG11       0.0623
     31 H          -4.4630    3.9081   -3.0336 H       1  LIG11       0.0623
     32 H          -2.9784    3.6819   -4.6790 H       1  LIG11       0.2099
     33 H          -0.0621    0.7860    0.0992 H       1  LIG11       0.0343
     34 H           0.9056    1.2971   -1.3392 H       1  LIG11       0.0343
     35 H           1.5831    3.3967   -0.1111 H       1  LIG11       0.0269
     36 H           0.6075    2.8763    1.3148 H       1  LIG11       0.0269
     37 H           2.0227    0.7921    1.5197 H       1  LIG11       0.0263
     38 H           3.0043    1.3199    0.1083 H       1  LIG11       0.0263
     39 H           4.1490    1.9105    2.2735 H       1  LIG11       0.0230
     40 H           3.7029    3.4078    1.3783 H       1  LIG11       0.0230
     41 H           2.7191    2.8731    2.7921 H       1  LIG11       0.0230
     42 H          -2.6725    0.5544   -3.2299 H       1  LIG11       0.0542
     43 H          -0.9007    0.7810   -3.3812 H       1  LIG11       0.0542
     44 H          -3.3216    0.0724   -0.5286 H       1  LIG11       0.0622
     45 H          -2.9475   -1.6847    1.1622 H       1  LIG11       0.0654
     46 H           0.5220   -3.0583   -1.0367 H       1  LIG11       0.0654
     47 H           0.1515   -1.2805   -2.7253 H       1  LIG11       0.0622
     48 H          -3.1163   -3.0875    5.8866 H       1  LIG11       0.0618
     49 H          -3.9189   -4.7511    4.2058 H       1  LIG11       0.0619
     50 H          -2.8112   -4.8978    1.9733 H       1  LIG11       0.0654
     51 H          -1.1790   -1.6275    5.3728 H       1  LIG11       0.0627
     52 H           0.8502   -2.7158    1.7033 H       1  LIG11       0.2954
@<TRIPOS>BOND
     1    32     7    1
     2     7     6    1
     3    43    13    1
     4    42    13    1
     5     6    31    1
     6     6    30    1
     7     6     4    1
     8    47    19    1
     9    13    12    1
    10    13    14    1
    11     4    12   ar
    12     4     3   ar
    13    12     1   ar
    14    19    14   ar
    15    19    18   ar
    16    14    15   ar
    17    34     8    1
    18     3     5    1
    19     3     2   ar
    20    46    18    1
    21     1     2   ar
    22     1     8    1
    23    18    17   ar
    24    15    44    1
    25    15    16   ar
    26     8    33    1
    27     8     9    1
    28    35     9    1
    29    38    10    1
    30    17    16   ar
    31    17    20    1
    32    16    45    1
    33     9    10    1
    34     9    36    1
    35    10    37    1
    36    10    11    1
    37    20    24    1
    38    40    11    1
    39    52    28    1
    40    11    39    1
    41    11    41    1
    42    50    23    1
    43    28    27    1
    44    24    23   ar
    45    24    25   ar
    46    23    22   ar
    47    27    25    1
    48    27    29    2
    49    25    26   ar
    50    22    49    1
    51    22    21   ar
    52    26    21   ar
    53    26    51    1
    54    21    48    1
