@<TRIPOS>MOLECULE
cpd6
 55 57 0 0 0
SMALL
GASTEIGER
Energy = 0

@<TRIPOS>ATOM
      1 C          -0.6474    2.6992   -1.1327 C.ar    1  LIG11       0.1119
      2 N          -1.0383    3.9143   -0.7458 N.ar    1  LIG11      -0.2205
      3 C          -2.2442    4.1461   -1.3941 C.ar    1  LIG11       0.1527
      4 C          -2.5620    3.0563   -2.1656 C.ar    1  LIG11       0.0831
      5 CL         -3.1689    5.5809   -1.2496 Cl      1  LIG11      -0.0600
      6 C          -3.7639    2.8684   -3.0491 C.3     1  LIG11       0.0872
      7 O          -3.3996    2.8343   -4.4128 O.3     1  LIG11      -0.3889
      8 C           0.6312    2.0914   -0.6287 C.3     1  LIG11       0.0057
      9 C           1.4609    3.0292    0.2624 C.3     1  LIG11      -0.0465
     10 C           2.7569    2.3570    0.7450 C.3     1  LIG11      -0.0555
     11 N          -1.5251    2.1498   -1.9925 N.ar    1  LIG11      -0.3239
     12 C          -1.4119    0.8361   -2.5885 C.3     1  LIG11       0.0498
     13 C          -1.5363   -0.2434   -1.5409 C.ar    1  LIG11      -0.0277
     14 C          -0.5373   -1.2020   -1.3678 C.ar    1  LIG11      -0.0563
     15 C          -0.6515   -2.1747   -0.3759 C.ar    1  LIG11      -0.0543
     16 C          -1.7659   -2.2266    0.4678 C.ar    1  LIG11      -0.0250
     17 C          -2.7728   -1.2769    0.2739 C.ar    1  LIG11      -0.0543
     18 C          -2.6603   -0.3012   -0.7162 C.ar    1  LIG11      -0.0563
     19 C          -1.8123   -3.2761    1.5054 C.2     1  LIG11      -0.0540
     20 C          -2.7639   -3.4210    2.4417 C.2     1  LIG11      -0.0533
     21 C          -2.7502   -4.4625    3.4876 C.ar    1  LIG11      -0.0110
     22 C          -3.9914   -4.9243    3.9391 C.ar    1  LIG11      -0.0538
     23 C          -4.0869   -6.0446    4.7628 C.ar    1  LIG11      -0.0612
     24 C          -2.9320   -6.7155    5.1566 C.ar    1  LIG11      -0.0609
     25 C          -1.6861   -6.2159    4.7833 C.ar    1  LIG11      -0.0472
     26 C          -1.5934   -5.0605    4.0036 C.ar    1  LIG11       0.0659
     27 C          -0.2423   -4.4052    3.8930 C.2     1  LIG11       0.3374
     28 O          -0.1119   -3.0728    3.9351 O.3     1  LIG11      -0.4771
     29 O           0.7569   -5.0725    3.7775 O.2     1  LIG11      -0.2451
     30 H          -4.2683    1.9045   -2.8020 H       1  LIG11       0.0623
     31 H          -4.5108    3.6862   -2.9173 H       1  LIG11       0.0623
     32 H          -3.1243    3.7005   -4.6637 H       1  LIG11       0.2099
     33 H           0.3752    1.1739   -0.0500 H       1  LIG11       0.0343
     34 H           1.2428    1.7849   -1.5093 H       1  LIG11       0.0343
     35 H           1.7189    3.9544   -0.3076 H       1  LIG11       0.0269
     36 H           0.8566    3.3345    1.1506 H       1  LIG11       0.0269
     37 H           2.5079    1.4300    1.3161 H       1  LIG11       0.0263
     38 H           3.3702    2.0493   -0.1364 H       1  LIG11       0.0263
     39 H          -2.2019    0.6687   -3.3543 H       1  LIG11       0.0542
     40 H          -0.4384    0.7761   -3.1275 H       1  LIG11       0.0542
     41 H           0.3621   -1.1856   -2.0063 H       1  LIG11       0.0621
     42 H           0.1687   -2.9041   -0.2614 H       1  LIG11       0.0624
     43 H          -3.6875   -1.2753    0.8863 H       1  LIG11       0.0624
     44 H          -3.4715    0.4350   -0.8434 H       1  LIG11       0.0621
     45 H          -1.0136   -4.0340    1.4711 H       1  LIG11       0.0624
     46 H          -3.5806   -2.6862    2.5024 H       1  LIG11       0.0624
     47 H          -4.9235   -4.4444    3.5943 H       1  LIG11       0.0624
     48 H          -5.0763   -6.4152    5.0819 H       1  LIG11       0.0618
     49 H          -3.0027   -7.6156    5.7914 H       1  LIG11       0.0618
     50 H          -0.7778   -6.7109    5.1673 H       1  LIG11       0.0626
     51 H          -0.9863   -2.7078    4.1317 H       1  LIG11       0.2954
     52 C           3.5866    3.2913    1.6356 C.3     1  LIG11      -0.0653
     53 H           4.5227    2.7910    1.9776 H       1  LIG11       0.0230
     54 H           3.8783    4.2164    1.0866 H       1  LIG11       0.0230
     55 H           3.0146    3.5955    2.5426 H       1  LIG11       0.0230
@<TRIPOS>BOND
     1    32     7    1
     2     7     6    1
     3    39    12    1
     4    40    12    1
     5     6    31    1
     6     6    30    1
     7     6     4    1
     8    12    11    1
     9    12    13    1
    10     4    11   ar
    11     4     3   ar
    12    41    14    1
    13    11     1   ar
    14    13    14   ar
    15    13    18   ar
    16    34     8    1
    17     3     5    1
    18     3     2   ar
    19    14    15   ar
    20     1     2   ar
    21     1     8    1
    22    44    18    1
    23    18    17   ar
    24     8    33    1
    25     8     9    1
    26    15    42    1
    27    15    16   ar
    28    35     9    1
    29    38    10    1
    30     9    10    1
    31     9    36    1
    32    17    16   ar
    33    17    43    1
    34    16    19    1
    35    10    37    1
    36    10    52    1
    37    54    52    1
    38    45    19    1
    39    19    20    2
    40    52    53    1
    41    52    55    1
    42    20    46    1
    43    20    21    1
    44    21    22   ar
    45    21    26   ar
    46    47    22    1
    47    29    27    2
    48    27    28    1
    49    27    26    1
    50    28    51    1
    51    22    23   ar
    52    26    25   ar
    53    23    48    1
    54    23    24   ar
    55    25    24   ar
    56    25    50    1
    57    24    49    1
