@<TRIPOS>MOLECULE
cpd7
 49 52 0 0 0
SMALL
GASTEIGER
Energy = 0

@<TRIPOS>ATOM
      1 C          -0.8062    2.7487   -1.0362 C.ar    1  LIG11       0.1430
      2 N          -1.2234    3.9571   -0.6532 N.ar    1  LIG11      -0.2157
      3 C          -2.3835    4.2121   -1.3709 C.ar    1  LIG11       0.1531
      4 C          -2.6645    3.1332   -2.1700 C.ar    1  LIG11       0.0833
      5 CL         -3.3043    5.6522   -1.2598 Cl      1  LIG11      -0.0600
      6 C          -3.8179    2.9610   -3.1191 C.3     1  LIG11       0.0873
      7 O          -3.3722    2.8412   -4.4536 O.3     1  LIG11      -0.3889
      8 N          -1.6490    2.2143   -1.9411 N.ar    1  LIG11      -0.3200
      9 C          -1.5841    0.8625   -2.4563 C.3     1  LIG11       0.0501
     10 C          -1.7297   -0.1340   -1.3312 C.ar    1  LIG11      -0.0277
     11 C          -0.6976   -1.0151   -1.0037 C.ar    1  LIG11      -0.0563
     12 C          -0.8283   -1.8933    0.0708 C.ar    1  LIG11      -0.0537
     13 C          -1.9985   -1.9185    0.8324 C.ar    1  LIG11      -0.0171
     14 C          -3.0428   -1.0597    0.4851 C.ar    1  LIG11      -0.0537
     15 C          -2.9061   -0.1714   -0.5804 C.ar    1  LIG11      -0.0563
     16 C          -2.1430   -2.8751    1.9809 C.ar    1  LIG11      -0.0039
     17 C          -3.2765   -3.6912    2.0368 C.ar    1  LIG11      -0.0532
     18 C          -3.3749   -4.7146    2.9780 C.ar    1  LIG11      -0.0611
     19 C          -2.3302   -4.9401    3.8713 C.ar    1  LIG11      -0.0609
     20 C          -1.2099   -4.1116    3.8473 C.ar    1  LIG11      -0.0472
     21 C          -1.1346   -3.0579    2.9340 C.ar    1  LIG11       0.0665
     22 H          -4.3847    2.0357   -2.8600 H       1  LIG11       0.0623
     23 H          -4.5287    3.8195   -3.0743 H       1  LIG11       0.0623
     24 H          -3.0383    3.6795   -4.7270 H       1  LIG11       0.2099
     25 H          -2.3918    0.6707   -3.1975 H       1  LIG11       0.0542
     26 H          -0.6290    0.7248   -3.0112 H       1  LIG11       0.0542
     27 H           0.2350   -1.0212   -1.5921 H       1  LIG11       0.0621
     28 H          -0.0050   -2.5930    0.2927 H       1  LIG11       0.0624
     29 H          -3.9727   -1.0468    1.0784 H       1  LIG11       0.0624
     30 H          -3.7349    0.5146   -0.8227 H       1  LIG11       0.0621
     31 H          -4.0850   -3.5747    1.2953 H       1  LIG11       0.0624
     32 H          -4.2683   -5.3622    2.9997 H       1  LIG11       0.0618
     33 H          -2.3978   -5.7604    4.6064 H       1  LIG11       0.0618
     34 H          -0.4100   -4.2709    4.5904 H       1  LIG11       0.0626
     35 C           0.0042   -2.0832    3.0645 C.2     1  LIG11       0.3374
     36 O          -0.1814   -0.7722    2.8679 O.3     1  LIG11      -0.4771
     37 O           1.1105   -2.4652    3.3595 O.2     1  LIG11      -0.2451
     38 H          -1.1325   -0.6270    2.7668 H       1  LIG11       0.2954
     39 C           0.3949    2.1274   -0.4731 C.ar    1  LIG11       0.0175
     40 C           1.4278    1.6808   -1.2991 C.ar    1  LIG11      -0.0511
     41 C           2.5531    1.0658   -0.7520 C.ar    1  LIG11      -0.0611
     42 C           2.6668    0.9217    0.6296 C.ar    1  LIG11      -0.0617
     43 C           1.6598    1.4078    1.4617 C.ar    1  LIG11      -0.0611
     44 C           0.5277    2.0074    0.9115 C.ar    1  LIG11      -0.0511
     45 H           1.3698    1.8257   -2.3908 H       1  LIG11       0.0625
     46 H           3.3572    0.6988   -1.4126 H       1  LIG11       0.0618
     47 H           3.5564    0.4345    1.0642 H       1  LIG11       0.0618
     48 H           1.7562    1.3107    2.5566 H       1  LIG11       0.0618
     49 H          -0.2758    2.3631    1.5789 H       1  LIG11       0.0625
@<TRIPOS>BOND
     1    24     7    1
     2     7     6    1
     3    25     9    1
     4     6    23    1
     5     6    22    1
     6     6     4    1
     7    26     9    1
     8     9     8    1
     9     9    10    1
    10    45    40    1
    11     4     8   ar
    12     4     3   ar
    13     8     1   ar
    14    27    11    1
    15    46    41    1
    16     3     5    1
    17     3     2   ar
    18    10    11   ar
    19    10    15   ar
    20    40    41   ar
    21    40    39   ar
    22     1     2   ar
    23     1    39    1
    24    11    12   ar
    25    30    15    1
    26    41    42   ar
    27    15    14   ar
    28    39    44   ar
    29    12    28    1
    30    12    13   ar
    31    14    13   ar
    32    14    29    1
    33    42    47    1
    34    42    43   ar
    35    13    16    1
    36    44    43   ar
    37    44    49    1
    38    31    17    1
    39    43    48    1
    40    16    17   ar
    41    16    21   ar
    42    17    18   ar
    43    38    36    1
    44    36    35    1
    45    21    35    1
    46    21    20   ar
    47    18    32    1
    48    18    19   ar
    49    35    37    2
    50    20    19   ar
    51    20    34    1
    52    19    33    1
