@<TRIPOS>MOLECULE
10_18a
 24 25 0 0 0
SMALL
USER_CHARGES
****
From 3DB ct
@<TRIPOS>ATOM
      1 N          10.1270    2.6230   12.8800 N.ar    1  LIG1       -0.6700
      2 C          10.7250    1.9710   11.8840 C.ar    1  LIG1        0.7795
      3 N          12.0010    2.1310   11.5330 N.ar    1  LIG1       -0.6587
      4 C          12.7310    3.0160   12.2230 C.ar    1  LIG1        0.4838
      5 C          12.2110    3.7570   13.2870 C.ar    1  LIG1       -0.4611
      6 C          10.8700    3.4910   13.5850 C.ar    1  LIG1        0.6920
      7 N          10.1940    4.1580   14.5930 N.pl3   1  LIG1       -0.7642
      8 H          10.6870    4.3480   15.4590 H       1  LIG1        0.3426
      9 H           9.2230    3.8840   14.7130 H       1  LIG1        0.3266
     10 C          13.0380    4.6920   13.9660 C.ar    1  LIG1       -0.0140
     11 H          12.6260    5.2770   14.7870 H       1  LIG1        0.0887
     12 C          14.3770    4.8880   13.6000 C.ar    1  LIG1       -0.0572
     13 C          14.8790    4.1330   12.5400 C.ar    1  LIG1        0.0128
     14 H          15.9130    4.2460   12.2160 H       1  LIG1        0.1170
     15 C          14.0590    3.2160   11.8690 C.ar    1  LIG1       -0.2879
     16 H          14.4800    2.6450   11.0430 H       1  LIG1        0.1430
     17 C          15.2050    5.8960   14.3590 C.3     1  LIG1        0.1344
     18 H          15.2510    5.6130   15.4160 H       1  LIG1        0.0166
     19 H          14.7530    6.8890   14.2630 H       1  LIG1        0.0107
     20 O          16.5400    5.9690   13.8630 O.3     1  LIG1       -0.4590
     21 H          16.9800    6.6450   14.4210 H       1  LIG1        0.2914
     22 N           9.9820    1.0790   11.1730 N.pl3   1  LIG1       -0.8130
     23 H          10.4060    0.5700   10.4120 H       1  LIG1        0.3760
     24 H           9.0120    0.9340   11.4110 H       1  LIG1        0.3699
@<TRIPOS>BOND
     1     1     2   ar
     2     2     3   ar
     3     3     4   ar
     4     4     5   ar
     5     5     6   ar
     6     6     1   ar
     7     6     7    1
     8     7     8    1
     9     7     9    1
    10     5    10   ar
    11    10    11    1
    12    10    12   ar
    13    12    13   ar
    14    13    14    1
    15    13    15   ar
    16    15    16    1
    17    15     4   ar
    18    12    17    1
    19    17    18    1
    20    17    19    1
    21    17    20    1
    22    20    21    1
    23     2    22    1
    24    22    23    1
    25    22    24    1
