@<TRIPOS>MOLECULE
10_11a
 35 37 0 0 0
SMALL
USER_CHARGES
****
From 3DB ct
@<TRIPOS>ATOM
      1 N          10.1300    2.6270   12.8890 N.ar    1  LIG1       -0.6792
      2 C          10.7230    1.9690   11.8930 C.ar    1  LIG1        0.7994
      3 N          11.9980    2.1260   11.5350 N.ar    1  LIG1       -0.6699
      4 C          12.7320    3.0140   12.2170 C.ar    1  LIG1        0.4966
      5 C          12.2180    3.7610   13.2800 C.ar    1  LIG1       -0.4802
      6 C          10.8770    3.4980   13.5860 C.ar    1  LIG1        0.6981
      7 N          10.2060    4.1710   14.5930 N.pl3   1  LIG1       -0.7520
      8 H          10.7040    4.3680   15.4550 H       1  LIG1        0.3313
      9 H           9.2360    3.8980   14.7200 H       1  LIG1        0.3267
     10 C          13.0480    4.6990   13.9510 C.ar    1  LIG1       -0.0104
     11 H          12.6400    5.2960   14.7650 H       1  LIG1        0.1051
     12 C          14.3860    4.8790   13.5810 C.ar    1  LIG1       -0.0483
     13 C          14.8830    4.1270   12.5150 C.ar    1  LIG1       -0.0087
     14 H          15.9150    4.2500   12.1860 H       1  LIG1        0.1083
     15 C          14.0590    3.2100   11.8530 C.ar    1  LIG1       -0.2827
     16 H          14.4730    2.6370   11.0240 H       1  LIG1        0.1446
     17 C          15.2600    5.8890   14.2900 C.3     1  LIG1        0.0321
     18 H          15.7150    5.4150   15.1690 H       1  LIG1        0.0576
     19 H          14.6370    6.7160   14.6510 H       1  LIG1        0.0643
     20 N          16.2840    6.3760   13.3840 N.pl3   1  LIG1       -0.5764
     21 H          17.2480    6.1380   13.6080 H       1  LIG1        0.3236
     22 C          16.0320    7.1400   12.2630 C.ar    1  LIG1        0.3417
     23 C          14.7520    7.6850   12.0850 C.ar    1  LIG1       -0.2204
     24 H          13.9750    7.5020   12.8250 H       1  LIG1        0.1160
     25 C          14.4390    8.4670   10.9670 C.ar    1  LIG1       -0.0516
     26 H          13.4370    8.8760   10.8550 H       1  LIG1        0.1019
     27 C          15.4080    8.7200   10.0030 C.ar    1  LIG1       -0.1973
     28 H          15.1690    9.3270    9.1320 H       1  LIG1        0.1085
     29 C          16.6860    8.1900   10.1590 C.ar    1  LIG1       -0.0029
     30 H          17.4500    8.3830    9.4080 H       1  LIG1        0.0943
     31 C          16.9910    7.4080   11.2790 C.ar    1  LIG1       -0.3170
     32 H          18.0020    7.0140   11.3610 H       1  LIG1        0.1191
     33 N           9.9770    1.0740   11.1910 N.pl3   1  LIG1       -0.8267
     34 H          10.3970    0.5590   10.4320 H       1  LIG1        0.3805
     35 H           9.0080    0.9300   11.4350 H       1  LIG1        0.3741
@<TRIPOS>BOND
     1     1     2   ar
     2     2     3   ar
     3     3     4   ar
     4     4     5   ar
     5     5     6   ar
     6     6     1   ar
     7     6     7    1
     8     7     8    1
     9     7     9    1
    10     5    10   ar
    11    10    11    1
    12    10    12   ar
    13    12    13   ar
    14    13    14    1
    15    13    15   ar
    16    15    16    1
    17    15     4   ar
    18    12    17    1
    19    17    18    1
    20    17    19    1
    21    17    20    1
    22    20    21    1
    23    20    22    1
    24    22    23   ar
    25    23    24    1
    26    23    25   ar
    27    25    26    1
    28    25    27   ar
    29    27    28    1
    30    27    29   ar
    31    29    30    1
    32    29    31   ar
    33    31    32    1
    34    31    22   ar
    35     2    33    1
    36    33    34    1
    37    33    35    1
