@<TRIPOS>MOLECULE
10_2b
 35 37 0 0 0
SMALL
USER_CHARGES
****
From 3DB ct
@<TRIPOS>ATOM
      1 N          10.1160    2.6050   12.8240 N.ar    1  LIG1       -0.6911
      2 C          10.7630    2.0020   11.8290 C.ar    1  LIG1        0.8131
      3 N          12.0470    2.1870   11.5390 N.ar    1  LIG1       -0.7254
      4 C          12.7360    3.0390   12.2820 C.ar    1  LIG1        0.8648
      5 C          12.1650    3.7270   13.3500 C.ar    1  LIG1       -0.7815
      6 C          10.8190    3.4470   13.5910 C.ar    1  LIG1        0.7468
      7 N          10.1020    4.0720   14.5950 N.pl3   1  LIG1       -0.7437
      8 H          10.5590    4.2380   15.4860 H       1  LIG1        0.3375
      9 H           9.1280    3.7910   14.6690 H       1  LIG1        0.3292
     10 C          12.9670    4.6330   14.0850 C.ar    1  LIG1        0.3177
     11 H          12.5390    5.1960   14.9120 H       1  LIG1        0.0779
     12 C          14.3050    4.8150   13.7480 C.ar    1  LIG1       -0.3731
     13 C          14.7750    4.0860   12.6720 C.ar    1  LIG1        0.3712
     14 H          15.8060    4.1800   12.3350 H       1  LIG1        0.0879
     15 N          14.0190    3.2160   11.9530 N.ar    1  LIG1       -0.5947
     16 C          15.1830    5.7820   14.4880 C.3     1  LIG1       -0.0002
     17 H          15.3010    5.4720   15.5340 H       1  LIG1        0.0870
     18 H          14.7330    6.7820   14.4660 H       1  LIG1        0.0823
     19 O          16.4580    5.7960   13.8350 O.3     1  LIG1       -0.2809
     20 C          16.9350    7.0350   13.5660 C.2     1  LIG1        0.5884
     21 C          16.3380    7.5670   12.3090 C.ar    1  LIG1       -0.1896
     22 C          14.9840    7.9180   12.2100 C.ar    1  LIG1       -0.0178
     23 H          14.3110    7.8150   13.0590 H       1  LIG1        0.0984
     24 C          14.4730    8.4130   11.0070 C.ar    1  LIG1       -0.1221
     25 H          13.4210    8.6840   10.9350 H       1  LIG1        0.1050
     26 C          15.3060    8.5600    9.8990 C.ar    1  LIG1       -0.0659
     27 H          14.9050    8.9450    8.9630 H       1  LIG1        0.1029
     28 C          16.6530    8.2130    9.9890 C.ar    1  LIG1       -0.1266
     29 H          17.3040    8.3280    9.1240 H       1  LIG1        0.1073
     30 C          17.1690    7.7180   11.1890 C.ar    1  LIG1       -0.0116
     31 H          18.2240    7.4520   11.2420 H       1  LIG1        0.0929
     32 O          17.7450    7.6460   14.2490 O.2     1  LIG1       -0.4343
     33 N          10.0580    1.1330   11.0530 N.pl3   1  LIG1       -0.8033
     34 H          10.5140    0.6570   10.2890 H       1  LIG1        0.3823
     35 H           9.0810    0.9710   11.2470 H       1  LIG1        0.3692
@<TRIPOS>BOND
     1     1     2   ar
     2     2     3   ar
     3     3     4   ar
     4     4     5   ar
     5     5     6   ar
     6     6     1   ar
     7     6     7    1
     8     7     8    1
     9     7     9    1
    10     5    10   ar
    11    10    11    1
    12    10    12   ar
    13    12    13   ar
    14    13    14    1
    15    13    15   ar
    16    15     4   ar
    17    12    16    1
    18    16    17    1
    19    16    18    1
    20    16    19    1
    21    19    20    1
    22    20    21    1
    23    21    22   ar
    24    22    23    1
    25    22    24   ar
    26    24    25    1
    27    24    26   ar
    28    26    27    1
    29    26    28   ar
    30    28    29    1
    31    28    30   ar
    32    30    31    1
    33    30    21   ar
    34    20    32    2
    35     2    33    1
    36    33    34    1
    37    33    35    1
