@<TRIPOS>MOLECULE
10_4a
 44 46 0 0 0
SMALL
USER_CHARGES
****
From 3DB ct
@<TRIPOS>ATOM
      1 N          10.0890    2.6060   12.8370 N.ar    1  LIG1       -0.6893
      2 C          10.7050    1.9820   11.8340 C.ar    1  LIG1        0.8258
      3 N          11.9910    2.1390   11.5180 N.ar    1  LIG1       -0.6906
      4 C          12.7120    2.9970   12.2520 C.ar    1  LIG1        0.5209
      5 C          12.1710    3.7080   13.3260 C.ar    1  LIG1       -0.5267
      6 C          10.8220    3.4440   13.5870 C.ar    1  LIG1        0.7054
      7 N          10.1300    4.0850   14.6000 N.pl3   1  LIG1       -0.7488
      8 H          10.6060    4.2400   15.4830 H       1  LIG1        0.3327
      9 H           9.1540    3.8170   14.6890 H       1  LIG1        0.3308
     10 C          12.9840    4.6200   14.0480 C.ar    1  LIG1        0.0663
     11 H          12.5560    5.1910   14.8710 H       1  LIG1        0.1161
     12 C          14.3270    4.8250   13.7070 C.ar    1  LIG1       -0.0830
     13 C          14.8560    4.0980   12.6410 C.ar    1  LIG1       -0.0365
     14 H          15.8950    4.2280   12.3400 H       1  LIG1        0.1245
     15 C          14.0500    3.1990   11.9330 C.ar    1  LIG1       -0.2711
     16 H          14.4860    2.6500   11.0990 H       1  LIG1        0.1391
     17 C          15.1640    5.8330   14.4530 C.3     1  LIG1       -0.0950
     18 H          15.2390    5.5620   15.5120 H       1  LIG1        0.1045
     19 H          14.7100    6.8280   14.3700 H       1  LIG1        0.0889
     20 O          16.4550    5.8460   13.8320 O.3     1  LIG1       -0.2685
     21 C          16.9630    7.0700   13.5670 C.2     1  LIG1        0.7084
     22 C          16.4030    7.5670   12.2890 C.ar    1  LIG1       -0.3575
     23 C          17.1920    7.7150   11.1330 C.ar    1  LIG1        0.3583
     24 C          16.5790    8.1750    9.9660 C.ar    1  LIG1       -0.2397
     25 H          17.1310    8.3140    9.0400 H       1  LIG1        0.1341
     26 C          15.2150    8.4900    9.9590 C.ar    1  LIG1       -0.1593
     27 H          14.7600    8.8490    9.0360 H       1  LIG1        0.1245
     28 C          14.4390    8.3620   11.1120 C.ar    1  LIG1        0.2417
     29 C          15.0370    7.9010   12.2820 C.ar    1  LIG1       -0.1015
     30 H          14.4690    7.7820   13.2000 H       1  LIG1        0.1392
     31 O          13.1270    8.7140   10.9620 O.3     1  LIG1       -0.3064
     32 C          12.7140    9.1300    9.6610 C.3     1  LIG1        0.0798
     33 H          11.6450    9.3600    9.7080 H       1  LIG1        0.0553
     34 H          12.8510    8.3270    8.9300 H       1  LIG1        0.0231
     35 H          13.2400   10.0410    9.3550 H       1  LIG1        0.0212
     36 O          18.5290    7.4380   11.2420 O.3     1  LIG1       -0.3090
     37 C          19.3200    7.5320   10.0590 C.3     1  LIG1        0.0458
     38 H          20.3290    7.1870   10.3070 H       1  LIG1        0.0649
     39 H          19.3980    8.5710    9.7230 H       1  LIG1        0.0339
     40 H          18.9300    6.8840    9.2680 H       1  LIG1        0.0327
     41 O          17.7070    7.7200   14.2860 O.2     1  LIG1       -0.4549
     42 N           9.9690    1.1250   11.0750 N.pl3   1  LIG1       -0.8414
     43 H          10.4020    0.6440   10.3000 H       1  LIG1        0.3845
     44 H           8.9910    0.9890   11.2810 H       1  LIG1        0.3764
@<TRIPOS>BOND
     1     1     2   ar
     2     2     3   ar
     3     3     4   ar
     4     4     5   ar
     5     5     6   ar
     6     6     1   ar
     7     6     7    1
     8     7     8    1
     9     7     9    1
    10     5    10   ar
    11    10    11    1
    12    10    12   ar
    13    12    13   ar
    14    13    14    1
    15    13    15   ar
    16    15    16    1
    17    15     4   ar
    18    12    17    1
    19    17    18    1
    20    17    19    1
    21    17    20    1
    22    20    21    1
    23    21    22    1
    24    22    23   ar
    25    23    24   ar
    26    24    25    1
    27    24    26   ar
    28    26    27    1
    29    26    28   ar
    30    28    29   ar
    31    29    30    1
    32    29    22   ar
    33    28    31    1
    34    31    32    1
    35    32    33    1
    36    32    34    1
    37    32    35    1
    38    23    36    1
    39    36    37    1
    40    37    38    1
    41    37    39    1
    42    37    40    1
    43    21    41    2
    44     2    42    1
    45    42    43    1
    46    42    44    1
