@<TRIPOS>MOLECULE
10_5a
 48 50 0 0 0
SMALL
USER_CHARGES
****
From 3DB ct
@<TRIPOS>ATOM
      1 N          10.0910    2.6010   12.8330 N.ar    1  LIG1       -0.6900
      2 C          10.7120    1.9800   11.8320 C.ar    1  LIG1        0.8237
      3 N          11.9980    2.1450   11.5200 N.ar    1  LIG1       -0.6848
      4 C          12.7120    3.0050   12.2560 C.ar    1  LIG1        0.5087
      5 C          12.1680    3.7120   13.3310 C.ar    1  LIG1       -0.5189
      6 C          10.8180    3.4420   13.5860 C.ar    1  LIG1        0.7121
      7 N          10.1180    4.0820   14.5940 N.pl3   1  LIG1       -0.7553
      8 H          10.5890    4.2450   15.4790 H       1  LIG1        0.3343
      9 H           9.1440    3.8080   14.6810 H       1  LIG1        0.3317
     10 C          12.9780    4.6250   14.0590 C.ar    1  LIG1        0.0456
     11 H          12.5480    5.1900   14.8850 H       1  LIG1        0.1155
     12 C          14.3230    4.8290   13.7240 C.ar    1  LIG1       -0.0593
     13 C          14.8520    4.1110   12.6520 C.ar    1  LIG1       -0.0330
     14 H          15.8910    4.2420   12.3530 H       1  LIG1        0.1160
     15 C          14.0490    3.2140   11.9380 C.ar    1  LIG1       -0.2663
     16 H          14.4860    2.6710   11.1020 H       1  LIG1        0.1400
     17 C          15.1630    5.8260   14.4810 C.3     1  LIG1       -0.1354
     18 H          15.2300    5.5430   15.5390 H       1  LIG1        0.1100
     19 H          14.7140    6.8230   14.4080 H       1  LIG1        0.1060
     20 O          16.4620    5.8370   13.8750 O.3     1  LIG1       -0.2362
     21 C          16.9540    7.0630   13.5920 C.2     1  LIG1        0.6747
     22 C          16.4250    7.5400   12.2910 C.ar    1  LIG1       -0.3829
     23 C          17.2080    7.6600   11.1340 C.ar    1  LIG1        0.3337
     24 C          16.6320    8.1830    9.9630 C.ar    1  LIG1       -0.0811
     25 C          15.2650    8.5150    9.9090 C.ar    1  LIG1        0.2907
     26 C          14.4930    8.3740   11.0620 C.ar    1  LIG1       -0.2767
     27 H          13.4360    8.6270   11.0830 H       1  LIG1        0.1521
     28 C          15.0720    7.9050   12.2470 C.ar    1  LIG1        0.0511
     29 H          14.4500    7.8170   13.1380 H       1  LIG1        0.1188
     30 O          14.8000    8.9700    8.7020 O.3     1  LIG1       -0.3087
     31 C          15.7350    9.0400    7.6270 C.3     1  LIG1        0.1329
     32 H          15.2020    9.4120    6.7470 H       1  LIG1        0.0328
     33 H          16.1280    8.0480    7.3830 H       1  LIG1        0.0093
     34 H          16.5420    9.7450    7.8530 H       1  LIG1        0.0158
     35 O          17.4040    8.3400    8.8320 O.3     1  LIG1       -0.2422
     36 C          18.7390    7.8900    9.0880 C.3     1  LIG1        0.0878
     37 H          19.3210    8.0370    8.1740 H       1  LIG1        0.0468
     38 H          18.7560    6.8220    9.3330 H       1  LIG1        0.0226
     39 H          19.2090    8.4720    9.8880 H       1  LIG1        0.0196
     40 O          18.5520    7.3770   11.1790 O.3     1  LIG1       -0.3011
     41 C          18.8120    6.0290   10.7640 C.3     1  LIG1        0.0444
     42 H          19.7880    5.7410   11.1650 H       1  LIG1        0.0375
     43 H          18.8650    5.9660    9.6730 H       1  LIG1        0.0285
     44 H          18.0650    5.3270   11.1510 H       1  LIG1        0.0605
     45 O          17.6780    7.7320   14.3140 O.2     1  LIG1       -0.4543
     46 N           9.9850    1.1190   11.0700 N.pl3   1  LIG1       -0.8386
     47 H          10.4220    0.6450   10.2940 H       1  LIG1        0.3844
     48 H           9.0050    0.9800   11.2690 H       1  LIG1        0.3774
@<TRIPOS>BOND
     1     1     2   ar
     2     2     3   ar
     3     3     4   ar
     4     4     5   ar
     5     5     6   ar
     6     6     1   ar
     7     6     7    1
     8     7     8    1
     9     7     9    1
    10     5    10   ar
    11    10    11    1
    12    10    12   ar
    13    12    13   ar
    14    13    14    1
    15    13    15   ar
    16    15    16    1
    17    15     4   ar
    18    12    17    1
    19    17    18    1
    20    17    19    1
    21    17    20    1
    22    20    21    1
    23    21    22    1
    24    22    23   ar
    25    23    24   ar
    26    24    25   ar
    27    25    26   ar
    28    26    27    1
    29    26    28   ar
    30    28    29    1
    31    28    22   ar
    32    25    30    1
    33    30    31    1
    34    31    32    1
    35    31    33    1
    36    31    34    1
    37    24    35    1
    38    35    36    1
    39    36    37    1
    40    36    38    1
    41    36    39    1
    42    23    40    1
    43    40    41    1
    44    41    42    1
    45    41    43    1
    46    41    44    1
    47    21    45    2
    48     2    46    1
    49    46    47    1
    50    46    48    1
