@<TRIPOS>MOLECULE
11_GR92754
 42 43 0 0 0
SMALL
USER_CHARGES
****
From 3DB ct
@<TRIPOS>ATOM
      1 N          10.1620    2.6400   12.8830 N.ar    1  LIG1       -0.6891
      2 C          10.7600    1.9840   11.8930 C.ar    1  LIG1        0.8109
      3 N          12.0300    2.1540   11.5400 N.ar    1  LIG1       -0.6665
      4 C          12.7500    3.0380   12.2260 C.ar    1  LIG1        0.5064
      5 C          12.2450    3.7920   13.2840 C.ar    1  LIG1       -0.3139
      6 C          10.9020    3.5390   13.5560 C.ar    1  LIG1        0.6902
      7 N          10.2600    4.1710   14.6140 N.pl3   1  LIG1       -0.7667
      8 H          10.5890    5.0960   14.8770 H       1  LIG1        0.3576
      9 H           9.2730    3.9770   14.7370 H       1  LIG1        0.3595
     10 N          13.0130    4.6920   13.9710 N.ar    1  LIG1       -0.2544
     11 C          14.3050    4.8380   13.5830 C.ar    1  LIG1        0.1613
     12 C          14.8090    4.0970   12.5140 C.ar    1  LIG1        0.2909
     13 N          14.0260    3.1910   11.8580 N.ar    1  LIG1       -0.3722
     14 C          16.2500    4.1720   12.0580 C.3     1  LIG1       -0.4807
     15 H          16.7530    3.2800   12.4520 H       1  LIG1        0.1395
     16 H          16.7640    5.0330   12.4960 H       1  LIG1        0.1328
     17 C          16.4290    4.2310   10.5260 C.3     1  LIG1        0.3588
     18 H          15.8980    3.3920   10.0590 H       1  LIG1       -0.0079
     19 C          17.9120    4.0930   10.1700 C.3     1  LIG1       -0.2675
     20 H          18.0550    4.1090    9.0850 H       1  LIG1        0.0561
     21 H          18.3150    3.1470   10.5460 H       1  LIG1        0.0556
     22 H          18.5020    4.9090   10.6010 H       1  LIG1        0.0629
     23 C          15.8770    5.5320    9.9370 C.3     1  LIG1       -0.2904
     24 H          16.0160    5.5540    8.8510 H       1  LIG1        0.0626
     25 H          16.3850    6.4060   10.3580 H       1  LIG1        0.0740
     26 H          14.8050    5.6350   10.1330 H       1  LIG1        0.0631
     27 C          15.1130    5.8370   14.3730 C.3     1  LIG1       -0.3351
     28 H          15.5460    5.3350   15.2460 H       1  LIG1        0.0912
     29 H          14.4300    6.5910   14.7880 H       1  LIG1        0.1016
     30 C          16.2080    6.5410   13.5480 C.3     1  LIG1        0.3356
     31 H          16.3670    6.0020   12.6070 H       1  LIG1       -0.0425
     32 C          17.5290    6.5260   14.3200 C.3     1  LIG1       -0.2277
     33 H          18.3260    7.0010   13.7390 H       1  LIG1        0.0469
     34 H          17.8420    5.4990   14.5350 H       1  LIG1        0.0396
     35 H          17.4390    7.0600   15.2730 H       1  LIG1        0.0608
     36 C          15.8300    7.9840   13.2010 C.3     1  LIG1       -0.2893
     37 H          16.6420    8.4760   12.6550 H       1  LIG1        0.0601
     38 H          15.6270    8.5700   14.1040 H       1  LIG1        0.0730
     39 H          14.9410    8.0190   12.5640 H       1  LIG1        0.0667
     40 N          10.0230    1.0790   11.1970 N.pl3   1  LIG1       -0.8020
     41 H          10.4450    0.5620   10.4380 H       1  LIG1        0.3777
     42 H           9.0560    0.9270   11.4410 H       1  LIG1        0.3707
@<TRIPOS>BOND
     1     1     2   ar
     2     2     3   ar
     3     3     4   ar
     4     4     5   ar
     5     5     6   ar
     6     6     1   ar
     7     6     7    1
     8     7     8    1
     9     7     9    1
    10     5    10   ar
    11    10    11   ar
    12    11    12   ar
    13    12    13   ar
    14    13     4   ar
    15    12    14    1
    16    14    15    1
    17    14    16    1
    18    14    17    1
    19    17    18    1
    20    17    19    1
    21    19    20    1
    22    19    21    1
    23    19    22    1
    24    17    23    1
    25    23    24    1
    26    23    25    1
    27    23    26    1
    28    11    27    1
    29    27    28    1
    30    27    29    1
    31    27    30    1
    32    30    31    1
    33    30    32    1
    34    32    33    1
    35    32    34    1
    36    32    35    1
    37    30    36    1
    38    36    37    1
    39    36    38    1
    40    36    39    1
    41     2    40    1
    42    40    41    1
    43    40    42    1
