@<TRIPOS>MOLECULE
12_4b
 47 51 0 0 0
SMALL
USER_CHARGES
****
From 3DB ct
@<TRIPOS>ATOM
      1 N          10.4180    2.8460   12.8810 N.ar    1  LIG1       -0.6639
      2 C          10.8580    2.2290   11.7870 C.ar    1  LIG1        0.7699
      3 N          12.1080    2.2880   11.3420 N.ar    1  LIG1       -0.6718
      4 C          12.9780    3.0140   12.0380 C.ar    1  LIG1        0.6302
      5 C          12.6480    3.7100   13.2070 C.ar    1  LIG1       -0.3637
      6 C          11.3140    3.5650   13.5790 C.ar    1  LIG1        0.6551
      7 N          10.8110    4.2340   14.6880 N.pl3   1  LIG1       -0.7290
      8 H          11.4600    4.4520   15.4380 H       1  LIG1        0.3462
      9 H           9.8450    4.0590   14.9380 H       1  LIG1        0.3482
     10 N          13.5660    4.4490   13.9080 N.ar    1  LIG1       -0.2056
     11 C          14.8350    4.4820   13.4270 C.ar    1  LIG1        0.1567
     12 C          15.1410    3.7950   12.2640 C.ar    1  LIG1        0.1997
     13 H          16.1440    3.8100   11.8450 H       1  LIG1        0.0915
     14 N          14.2300    3.0620   11.5690 N.ar    1  LIG1       -0.4618
     15 C          15.9280    5.2900   14.1180 C.3     1  LIG1       -0.2354
     16 H          16.4560    4.6270   14.8170 H       1  LIG1        0.1128
     17 H          15.4400    6.0360   14.7630 H       1  LIG1        0.1277
     18 N          16.9060    5.9820   13.2200 N.pl3   1  LIG1       -0.2682
     19 C          16.3650    6.7770   12.1710 C.ar    1  LIG1        0.1468
     20 C          16.9550    6.9330   10.8960 C.ar    1  LIG1       -0.0651
     21 C          16.3770    7.8180    9.9490 C.ar    1  LIG1       -0.1249
     22 H          16.8410    7.9500    8.9710 H       1  LIG1        0.1062
     23 C          15.2130    8.5250   10.2210 C.ar    1  LIG1       -0.1153
     24 H          14.7850    9.1910    9.4750 H       1  LIG1        0.1078
     25 C          14.6070    8.3700   11.4530 C.ar    1  LIG1       -0.1330
     26 H          13.6990    8.9200   11.6910 H       1  LIG1        0.1179
     27 C          15.1790    7.5190   12.4050 C.ar    1  LIG1       -0.0862
     28 H          14.6750    7.4800   13.3670 H       1  LIG1        0.0767
     29 C          18.1940    6.2110   10.4100 C.3     1  LIG1        0.0495
     30 H          19.0670    6.8510   10.5970 H       1  LIG1        0.0160
     31 H          18.1190    6.0920    9.3200 H       1  LIG1        0.0186
     32 C          18.3940    4.8160   10.9800 C.3     1  LIG1       -0.1656
     33 H          17.4640    4.2350   10.9970 H       1  LIG1        0.0720
     34 H          19.0880    4.2680   10.3300 H       1  LIG1        0.0502
     35 C          18.9700    4.9180   12.3640 C.ar    1  LIG1        0.0444
     36 C          18.2340    5.5110   13.4010 C.ar    1  LIG1        0.1540
     37 C          18.8500    5.5930   14.6660 C.ar    1  LIG1       -0.1848
     38 H          18.3420    6.0750   15.4980 H       1  LIG1        0.1278
     39 C          20.1360    5.0950   14.8990 C.ar    1  LIG1       -0.0924
     40 H          20.5800    5.1790   15.8880 H       1  LIG1        0.1082
     41 C          20.8420    4.4970   13.8650 C.ar    1  LIG1       -0.1122
     42 H          21.8420    4.1060   14.0380 H       1  LIG1        0.1059
     43 C          20.2640    4.4110   12.6030 C.ar    1  LIG1       -0.1504
     44 H          20.8310    3.9480   11.7960 H       1  LIG1        0.1247
     45 N           9.9660    1.4900   11.0750 N.pl3   1  LIG1       -0.7712
     46 H          10.2640    1.0090   10.2390 H       1  LIG1        0.3727
     47 H           9.0070    1.4250   11.3870 H       1  LIG1        0.3630
@<TRIPOS>BOND
     1     1     2   ar
     2     2     3   ar
     3     3     4   ar
     4     4     5   ar
     5     5     6   ar
     6     6     1   ar
     7     6     7    1
     8     7     8    1
     9     7     9    1
    10     5    10   ar
    11    10    11   ar
    12    11    12   ar
    13    12    13    1
    14    12    14   ar
    15    14     4   ar
    16    11    15    1
    17    15    16    1
    18    15    17    1
    19    15    18    1
    20    18    19    1
    21    19    20   ar
    22    20    21   ar
    23    21    22    1
    24    21    23   ar
    25    23    24    1
    26    23    25   ar
    27    25    26    1
    28    25    27   ar
    29    27    28    1
    30    27    19   ar
    31    20    29    1
    32    29    30    1
    33    29    31    1
    34    29    32    1
    35    32    33    1
    36    32    34    1
    37    32    35    1
    38    35    36   ar
    39    36    18    1
    40    36    37   ar
    41    37    38    1
    42    37    39   ar
    43    39    40    1
    44    39    41   ar
    45    41    42    1
    46    41    43   ar
    47    43    44    1
    48    43    35   ar
    49     2    45    1
    50    45    46    1
    51    45    47    1
