@<TRIPOS>MOLECULE
12_4a
 45 49 0 0 0
SMALL
USER_CHARGES
****
From 3DB ct
@<TRIPOS>ATOM
      1 C          10.6990    2.1190   11.8230 C.ar    1  LIG1        0.7587
      2 N          11.9820    2.1880   11.3660 N.ar    1  LIG1       -0.6698
      3 C          12.9270    2.9330   12.0190 C.ar    1  LIG1        0.6164
      4 C          12.5730    3.6930   13.1940 C.ar    1  LIG1       -0.3269
      5 C          11.2230    3.6060   13.6450 C.ar    1  LIG1        0.6423
      6 N          10.3340    2.8280   12.9360 N.ar    1  LIG1       -0.6588
      7 N          10.8140    4.2770   14.7430 N.pl3   1  LIG1       -0.7329
      8 H          11.3960    4.7880   15.2000 H       1  LIG1        0.3500
      9 H           9.9590    4.2140   15.0170 H       1  LIG1        0.3500
     10 N          13.5520    4.4390   13.8550 N.ar    1  LIG1       -0.2441
     11 C          14.8410    4.4680   13.3790 C.ar    1  LIG1        0.2194
     12 C          15.1680    3.7130   12.1960 C.ar    1  LIG1        0.1496
     13 H          16.0550    3.7230   11.8570 H       1  LIG1        0.1118
     14 N          14.2110    2.9800   11.5530 N.ar    1  LIG1       -0.4495
     15 C          15.9880    5.2640   14.1130 C.3     1  LIG1       -0.2965
     16 H          15.6070    5.9640   14.6300 H       1  LIG1        0.1318
     17 H          16.4440    4.6690   14.6970 H       1  LIG1        0.1266
     18 N          17.0270    5.9210   13.1700 N.pl3   1  LIG1       -0.1913
     19 C          18.2400    6.1850   13.9470 C.ar    1  LIG1        0.1729
     20 C          18.2430    5.9070   15.3710 C.ar    1  LIG1       -0.2005
     21 H          17.4290    5.7000   15.8160 H       1  LIG1        0.1277
     22 C          19.4480    5.9390   16.1110 C.ar    1  LIG1       -0.0789
     23 H          19.4310    5.8040   17.0510 H       1  LIG1        0.1064
     24 C          20.6680    6.1720   15.4440 C.ar    1  LIG1       -0.1250
     25 H          21.4840    6.1650   15.9300 H       1  LIG1        0.1082
     26 C          20.6910    6.4180   14.0530 C.ar    1  LIG1       -0.1393
     27 H          21.5200    6.5380   13.6050 H       1  LIG1        0.1237
     28 C          19.5040    6.4970   13.2740 C.ar    1  LIG1        0.0341
     29 C          19.6950    6.7300   11.7650 C.2     1  LIG1       -0.1275
     30 H          20.5450    6.5880   11.3660 H       1  LIG1        0.1027
     31 C          18.7770    7.1320   10.8540 C.2     1  LIG1       -0.1943
     32 H          19.0300    7.2480    9.9450 H       1  LIG1        0.1165
     33 C          17.2990    7.4470   11.0980 C.ar    1  LIG1        0.1224
     34 C          16.6440    8.1990   10.0570 C.ar    1  LIG1       -0.1622
     35 H          17.1320    8.4720    9.2890 H       1  LIG1        0.1244
     36 C          15.2680    8.5500   10.1430 C.ar    1  LIG1       -0.1014
     37 H          14.8640    9.0630    9.4520 H       1  LIG1        0.1054
     38 C          14.4930    8.1380   11.2620 C.ar    1  LIG1       -0.1262
     39 H          13.5860    8.4110   11.3380 H       1  LIG1        0.1135
     40 C          15.0780    7.3220   12.2580 C.ar    1  LIG1       -0.0725
     41 H          14.5500    7.0030   12.9810 H       1  LIG1        0.0897
     42 C          16.4770    6.9470   12.2150 C.ar    1  LIG1        0.0246
     43 N           9.8030    1.3470   11.1730 N.pl3   1  LIG1       -0.7613
     44 H          10.0550    0.8820   10.4450 H       1  LIG1        0.3700
     45 H           8.9550    1.2960   11.4690 H       1  LIG1        0.3601
@<TRIPOS>BOND
     1     1     2   ar
     2     2     3   ar
     3     3     4   ar
     4     4     5   ar
     5     5     6   ar
     6     6     1   ar
     7     5     7    1
     8     7     8    1
     9     7     9    1
    10     4    10   ar
    11    10    11   ar
    12    11    12   ar
    13    12    13    1
    14    12    14   ar
    15    14     3   ar
    16    11    15    1
    17    15    16    1
    18    15    17    1
    19    15    18    1
    20    18    19    1
    21    19    20   ar
    22    20    21    1
    23    20    22   ar
    24    22    23    1
    25    22    24   ar
    26    24    25    1
    27    24    26   ar
    28    26    27    1
    29    26    28   ar
    30    28    19   ar
    31    28    29    1
    32    29    30    1
    33    29    31    2
    34    31    32    1
    35    31    33    1
    36    33    34   ar
    37    34    35    1
    38    34    36   ar
    39    36    37    1
    40    36    38   ar
    41    38    39    1
    42    38    40   ar
    43    40    41    1
    44    40    42   ar
    45    42    33   ar
    46    42    18    1
    47     1    43    1
    48    43    44    1
    49    43    45    1
