@<TRIPOS>MOLECULE
12_4d
 42 46 0 0 0
SMALL
USER_CHARGES
****
From 3DB ct
@<TRIPOS>ATOM
      1 N          10.3830    2.8460   12.9670 N.ar    1  LIG1       -0.6619
      2 C          10.7880    2.1830   11.8870 C.ar    1  LIG1        0.7664
      3 N          12.0300    2.2040   11.4130 N.ar    1  LIG1       -0.6700
      4 C          12.9260    2.9400   12.0630 C.ar    1  LIG1        0.6235
      5 C          12.6330    3.6840   13.2120 C.ar    1  LIG1       -0.3503
      6 C          11.3060    3.5740   13.6200 C.ar    1  LIG1        0.6537
      7 N          10.8390    4.2900   14.7150 N.pl3   1  LIG1       -0.7313
      8 H          11.5080    4.5240   15.4430 H       1  LIG1        0.3460
      9 H           9.8760    4.1400   14.9920 H       1  LIG1        0.3489
     10 N          13.5780    4.4320   13.8650 N.ar    1  LIG1       -0.2131
     11 C          14.8290    4.4470   13.3410 C.ar    1  LIG1        0.1743
     12 C          15.1060    3.6940   12.2130 C.ar    1  LIG1        0.1661
     13 H          16.1030    3.6630   11.7820 H       1  LIG1        0.1053
     14 N          14.1690    2.9470   11.5680 N.ar    1  LIG1       -0.4516
     15 C          15.9430    5.2210   14.0280 C.3     1  LIG1       -0.3097
     16 H          16.5240    4.5480   14.6710 H       1  LIG1        0.1486
     17 H          15.4880    5.9170   14.7440 H       1  LIG1        0.1341
     18 N          16.8470    5.9160   13.0840 N.pl3   1  LIG1       -0.0524
     19 C          16.3180    6.8290   12.1480 C.ar    1  LIG1       -0.0851
     20 C          17.1940    7.4030   11.2060 C.ar    1  LIG1        0.2634
     21 C          16.7470    8.3110   10.2390 C.ar    1  LIG1       -0.2075
     22 H          17.4470    8.7350    9.5210 H       1  LIG1        0.1486
     23 C          15.4060    8.6740   10.1970 C.ar    1  LIG1       -0.0738
     24 H          15.0530    9.3810    9.4490 H       1  LIG1        0.1091
     25 C          14.5200    8.1300   11.1210 C.ar    1  LIG1       -0.1748
     26 H          13.4690    8.4140   11.0970 H       1  LIG1        0.1250
     27 C          14.9720    7.2190   12.0860 C.ar    1  LIG1       -0.0284
     28 H          14.2300    6.8390   12.7830 H       1  LIG1        0.0861
     29 O          18.5410    7.1110   11.1660 O.3     1  LIG1       -0.3282
     30 C          19.0490    6.2870   12.1490 C.ar    1  LIG1        0.2337
     31 C          18.2360    5.6790   13.1270 C.ar    1  LIG1       -0.0142
     32 C          18.8830    4.8830   14.0850 C.ar    1  LIG1       -0.0915
     33 H          18.3400    4.4060   14.8950 H       1  LIG1        0.0908
     34 C          20.2710    4.6870   14.0540 C.ar    1  LIG1       -0.1497
     35 H          20.7440    4.0650   14.8120 H       1  LIG1        0.1216
     36 C          21.0450    5.2870   13.0660 C.ar    1  LIG1       -0.0853
     37 H          22.1220    5.1330   13.0450 H       1  LIG1        0.1104
     38 C          20.4340    6.0910   12.1120 C.ar    1  LIG1       -0.1943
     39 H          21.0340    6.5700   11.3410 H       1  LIG1        0.1491
     40 N           9.8680    1.4340   11.2220 N.pl3   1  LIG1       -0.7658
     41 H          10.1390    0.9190   10.3970 H       1  LIG1        0.3720
     42 H           8.9160    1.3980   11.5560 H       1  LIG1        0.3621
@<TRIPOS>BOND
     1     1     2   ar
     2     2     3   ar
     3     3     4   ar
     4     4     5   ar
     5     5     6   ar
     6     6     1   ar
     7     6     7    1
     8     7     8    1
     9     7     9    1
    10     5    10   ar
    11    10    11   ar
    12    11    12   ar
    13    12    13    1
    14    12    14   ar
    15    14     4   ar
    16    11    15    1
    17    15    16    1
    18    15    17    1
    19    15    18    1
    20    18    19    1
    21    19    20   ar
    22    20    21   ar
    23    21    22    1
    24    21    23   ar
    25    23    24    1
    26    23    25   ar
    27    25    26    1
    28    25    27   ar
    29    27    28    1
    30    27    19   ar
    31    20    29    1
    32    29    30    1
    33    30    31   ar
    34    31    18    1
    35    31    32   ar
    36    32    33    1
    37    32    34   ar
    38    34    35    1
    39    34    36   ar
    40    36    37    1
    41    36    38   ar
    42    38    39    1
    43    38    30   ar
    44     2    40    1
    45    40    41    1
    46    40    42    1
