@<TRIPOS>MOLECULE
14_5
 42 44 0 0 0
SMALL
USER_CHARGES
****
From 3DB ct
@<TRIPOS>ATOM
      1 N          10.1580    2.6350   12.9100 N.ar    1  LIG1       -0.6657
      2 C          10.7270    1.9590   11.9130 C.ar    1  LIG1        0.7911
      3 N          11.9920    2.1150   11.5270 N.ar    1  LIG1       -0.6361
      4 C          12.7360    3.0170   12.1930 C.ar    1  LIG1        0.2583
      5 C          12.2660    3.7880   13.2580 C.ar    1  LIG1       -0.1269
      6 C          10.9300    3.5220   13.5710 C.ar    1  LIG1        0.6301
      7 N          10.2830    4.2360   14.5740 N.pl3   1  LIG1       -0.7557
      8 H          10.8520    4.5780   15.3440 H       1  LIG1        0.3588
      9 H           9.3280    3.9680   14.7830 H       1  LIG1        0.3565
     10 N          13.0400    4.6980   13.9260 N.ar    1  LIG1       -0.3809
     11 C          14.3330    4.8640   13.5320 C.ar    1  LIG1        0.3398
     12 C          14.8690    4.1370   12.4800 C.ar    1  LIG1       -0.2479
     13 H          15.9020    4.2760   12.1710 H       1  LIG1        0.1422
     14 C          14.0570    3.2150   11.8200 C.ar    1  LIG1       -0.0778
     15 H          14.4730    2.6410   10.9940 H       1  LIG1        0.1252
     16 C          15.2070    5.8800   14.2650 C.3     1  LIG1       -0.0969
     17 H          15.6700    5.3710   15.1180 H       1  LIG1        0.0764
     18 H          14.5560    6.6890   14.6170 H       1  LIG1        0.0960
     19 N          16.2350    6.4140   13.3810 N.pl3   1  LIG1       -0.3560
     20 H          17.1860    6.2060   13.6900 H       1  LIG1        0.2657
     21 C          16.0430    7.1620   12.2340 C.ar    1  LIG1        0.1066
     22 C          14.7560    7.7040   12.0410 C.ar    1  LIG1       -0.2570
     23 H          13.9810    7.5100   12.7830 H       1  LIG1        0.1401
     24 C          14.4270    8.4860   10.9290 C.ar    1  LIG1        0.2979
     25 C          15.4020    8.7420    9.9760 C.ar    1  LIG1       -0.2933
     26 H          15.2040    9.3430    9.0920 H       1  LIG1        0.1307
     27 C          16.6900    8.2200   10.1370 C.ar    1  LIG1       -0.1064
     28 H          17.4170    8.4530    9.3620 H       1  LIG1        0.1195
     29 C          17.0220    7.4340   11.2520 C.ar    1  LIG1        0.0685
     30 O          18.2740    6.9050   11.4470 O.3     1  LIG1       -0.2598
     31 C          19.2930    7.2300   10.5040 C.3     1  LIG1        0.0147
     32 H          20.2010    6.6960   10.8010 H       1  LIG1        0.0597
     33 H          19.5170    8.3020   10.5210 H       1  LIG1        0.0393
     34 H          19.0220    6.8930    9.4980 H       1  LIG1        0.0394
     35 O          13.1340    8.9310   10.8980 O.3     1  LIG1       -0.2915
     36 C          12.7720    9.7770    9.8070 C.3     1  LIG1        0.0278
     37 H          11.7200   10.0490    9.9320 H       1  LIG1        0.0632
     38 H          12.8710    9.2500    8.8520 H       1  LIG1        0.0383
     39 H          13.3600   10.7010    9.8150 H       1  LIG1        0.0365
     40 N           9.9680    1.0520   11.2430 N.pl3   1  LIG1       -0.8199
     41 H          10.3720    0.5250   10.4830 H       1  LIG1        0.3768
     42 H           9.0040    0.9110   11.5080 H       1  LIG1        0.3727
@<TRIPOS>BOND
     1     1     2   ar
     2     2     3   ar
     3     3     4   ar
     4     4     5   ar
     5     5     6   ar
     6     6     1   ar
     7     6     7    1
     8     7     8    1
     9     7     9    1
    10     5    10   ar
    11    10    11   ar
    12    11    12   ar
    13    12    13    1
    14    12    14   ar
    15    14    15    1
    16    14     4   ar
    17    11    16    1
    18    16    17    1
    19    16    18    1
    20    16    19    1
    21    19    20    1
    22    19    21    1
    23    21    22   ar
    24    22    23    1
    25    22    24   ar
    26    24    25   ar
    27    25    26    1
    28    25    27   ar
    29    27    28    1
    30    27    29   ar
    31    29    21   ar
    32    29    30    1
    33    30    31    1
    34    31    32    1
    35    31    33    1
    36    31    34    1
    37    24    35    1
    38    35    36    1
    39    36    37    1
    40    36    38    1
    41    36    39    1
    42     2    40    1
    43    40    41    1
    44    40    42    1
