@<TRIPOS>MOLECULE
15_14
 50 52 0 0 0
SMALL
USER_CHARGES
****
From 3DB ct
@<TRIPOS>ATOM
      1 N          10.1490    2.7150   12.8170 N.ar    1  LIG1       -0.6706
      2 C          10.7470    2.0440   11.8330 C.ar    1  LIG1        0.7919
      3 N          12.0350    2.1610   11.5140 N.ar    1  LIG1       -0.6704
      4 C          12.7760    3.0230   12.2230 C.ar    1  LIG1        0.4501
      5 C          12.2620    3.7790   13.2720 C.ar    1  LIG1       -0.4520
      6 C          10.9060    3.5570   13.5400 C.ar    1  LIG1        0.6911
      7 N          10.2290    4.2410   14.5350 N.pl3   1  LIG1       -0.7700
      8 H          10.7060    4.4050   15.4150 H       1  LIG1        0.3391
      9 H           9.2480    3.9960   14.6290 H       1  LIG1        0.3286
     10 C          13.1080    4.6930   13.9690 C.ar    1  LIG1       -0.0836
     11 H          12.6530    5.2720   14.7680 H       1  LIG1        0.0952
     12 C          14.4630    4.8740   13.6530 C.ar    1  LIG1        0.1592
     13 C          14.9400    4.0830   12.6000 C.ar    1  LIG1       -0.1366
     14 H          15.9770    4.1380   12.2770 H       1  LIG1        0.1326
     15 C          14.1140    3.1840   11.9060 C.ar    1  LIG1       -0.1958
     16 H          14.5430    2.6020   11.0920 H       1  LIG1        0.1304
     17 N          15.2770    5.7750   14.3260 N.pl3   1  LIG1       -0.3181
     18 C          16.3440    6.5460   13.6540 C.3     1  LIG1        0.0665
     19 H          17.1830    5.8900   13.3890 H       1  LIG1        0.0439
     20 H          16.7590    7.2700   14.3660 H       1  LIG1        0.0685
     21 C          15.8880    7.2250   12.3750 C.ar    1  LIG1       -0.0907
     22 C          14.5560    7.6350   12.1930 C.ar    1  LIG1       -0.0126
     23 H          13.8230    7.4860   12.9840 H       1  LIG1        0.1186
     24 C          14.1340    8.2490   11.0060 C.ar    1  LIG1       -0.2969
     25 H          13.0900    8.5430   10.9370 H       1  LIG1        0.1584
     26 C          15.0360    8.4720    9.9660 C.ar    1  LIG1        0.2716
     27 C          16.3670    8.0620   10.1320 C.ar    1  LIG1        0.0024
     28 C          16.7780    7.4030   11.3030 C.ar    1  LIG1        0.0951
     29 O          18.0810    6.9900   11.4450 O.3     1  LIG1       -0.2285
     30 C          18.2420    5.6590   10.9410 C.3     1  LIG1       -0.0096
     31 H          19.2450    5.3190   11.2170 H       1  LIG1        0.0595
     32 H          18.1670    5.6360    9.8490 H       1  LIG1        0.0485
     33 H          17.5160    4.9720   11.3900 H       1  LIG1        0.0606
     34 O          17.2670    8.2640    9.1100 O.3     1  LIG1       -0.2638
     35 C          18.5550    7.7720    9.4960 C.3     1  LIG1        0.0253
     36 H          19.2530    7.9910    8.6820 H       1  LIG1        0.0670
     37 H          18.5370    6.6880    9.6460 H       1  LIG1        0.0372
     38 H          18.9190    8.2750   10.3990 H       1  LIG1        0.0342
     39 O          14.7290    9.0680    8.7710 O.3     1  LIG1       -0.2986
     40 C          15.7890    9.2090    7.8260 C.3     1  LIG1        0.1043
     41 H          15.3760    9.6850    6.9320 H       1  LIG1        0.0331
     42 H          16.1860    8.2320    7.5320 H       1  LIG1        0.0236
     43 H          16.5790    9.8600    8.2160 H       1  LIG1        0.0264
     44 C          15.0780    6.0460   15.7530 C.3     1  LIG1       -0.0292
     45 H          15.8330    6.7350   16.1480 H       1  LIG1        0.0658
     46 H          15.1590    5.1250   16.3410 H       1  LIG1        0.0424
     47 H          14.0980    6.5050   15.9260 H       1  LIG1        0.0398
     48 N           9.9910    1.1820   11.1010 N.pl3   1  LIG1       -0.8358
     49 H          10.4130    0.6630   10.3460 H       1  LIG1        0.3800
     50 H           9.0090    1.0760   11.3110 H       1  LIG1        0.3719
@<TRIPOS>BOND
     1     1     2   ar
     2     2     3   ar
     3     3     4   ar
     4     4     5   ar
     5     5     6   ar
     6     6     1   ar
     7     6     7    1
     8     7     8    1
     9     7     9    1
    10     5    10   ar
    11    10    11    1
    12    10    12   ar
    13    12    13   ar
    14    13    14    1
    15    13    15   ar
    16    15    16    1
    17    15     4   ar
    18    12    17    1
    19    17    18    1
    20    18    19    1
    21    18    20    1
    22    18    21    1
    23    21    22   ar
    24    22    23    1
    25    22    24   ar
    26    24    25    1
    27    24    26   ar
    28    26    27   ar
    29    27    28   ar
    30    28    21   ar
    31    28    29    1
    32    29    30    1
    33    30    31    1
    34    30    32    1
    35    30    33    1
    36    27    34    1
    37    34    35    1
    38    35    36    1
    39    35    37    1
    40    35    38    1
    41    26    39    1
    42    39    40    1
    43    40    41    1
    44    40    42    1
    45    40    43    1
    46    17    44    1
    47    44    45    1
    48    44    46    1
    49    44    47    1
    50     2    48    1
    51    48    49    1
    52    48    50    1
