@<TRIPOS>MOLECULE
15_13
 46 48 0 0 0
SMALL
USER_CHARGES
****
From 3DB ct
@<TRIPOS>ATOM
      1 N          10.1540    2.7140   12.8270 N.ar    1  LIG1       -0.6652
      2 C          10.7470    2.0350   11.8460 C.ar    1  LIG1        0.7803
      3 N          12.0330    2.1550   11.5150 N.ar    1  LIG1       -0.6666
      4 C          12.7750    3.0260   12.2110 C.ar    1  LIG1        0.4614
      5 C          12.2650    3.7910   13.2560 C.ar    1  LIG1       -0.4468
      6 C          10.9120    3.5670   13.5360 C.ar    1  LIG1        0.6811
      7 N          10.2390    4.2610   14.5270 N.pl3   1  LIG1       -0.7638
      8 H          10.7210    4.4360   15.4030 H       1  LIG1        0.3363
      9 H           9.2590    4.0150   14.6300 H       1  LIG1        0.3257
     10 C          13.1130    4.7120   13.9400 C.ar    1  LIG1       -0.0857
     11 H          12.6660    5.3010   14.7380 H       1  LIG1        0.0956
     12 C          14.4690    4.8880   13.6190 C.ar    1  LIG1        0.1176
     13 C          14.9400    4.0930   12.5690 C.ar    1  LIG1       -0.0877
     14 H          15.9760    4.1430   12.2390 H       1  LIG1        0.1216
     15 C          14.1100    3.1890   11.8850 C.ar    1  LIG1       -0.2282
     16 H          14.5360    2.6000   11.0730 H       1  LIG1        0.1359
     17 N          15.2810    5.7850   14.3010 N.pl3   1  LIG1       -0.2641
     18 C          16.3210    6.5900   13.6250 C.3     1  LIG1        0.0667
     19 H          17.1810    5.9580   13.3660 H       1  LIG1        0.0387
     20 H          16.7100    7.3300   14.3340 H       1  LIG1        0.0676
     21 C          15.8480    7.2490   12.3370 C.ar    1  LIG1       -0.2853
     22 C          14.5030    7.6090   12.1520 C.ar    1  LIG1        0.1444
     23 H          13.7730    7.4490   12.9440 H       1  LIG1        0.0941
     24 C          14.0720    8.1840   10.9560 C.ar    1  LIG1       -0.4225
     25 H          13.0250    8.4620   10.8450 H       1  LIG1        0.1681
     26 C          14.9690    8.4000    9.9120 C.ar    1  LIG1        0.4013
     27 C          16.3060    8.0270   10.0700 C.ar    1  LIG1       -0.3905
     28 H          17.0030    8.1840    9.2550 H       1  LIG1        0.1424
     29 C          16.7490    7.4470   11.2690 C.ar    1  LIG1        0.3112
     30 O          18.0390    7.0350   11.4960 O.3     1  LIG1       -0.2364
     31 C          18.9820    7.1900   10.4370 C.3     1  LIG1       -0.0107
     32 H          19.9470    6.8220   10.7960 H       1  LIG1        0.0698
     33 H          19.1050    8.2450   10.1710 H       1  LIG1        0.0448
     34 H          18.6980    6.5880    9.5670 H       1  LIG1        0.0490
     35 O          14.4180    8.9720    8.7980 O.3     1  LIG1       -0.2980
     36 C          15.2900    9.2160    7.6960 C.3     1  LIG1        0.0608
     37 H          14.7000    9.6810    6.9010 H       1  LIG1        0.0584
     38 H          15.7000    8.2800    7.3050 H       1  LIG1        0.0288
     39 H          16.0870    9.9150    7.9730 H       1  LIG1        0.0247
     40 C          15.0830    6.0490   15.7300 C.3     1  LIG1       -0.0384
     41 H          15.8570    6.7120   16.1320 H       1  LIG1        0.0671
     42 H          15.1360    5.1220   16.3110 H       1  LIG1        0.0364
     43 H          14.1160    6.5350   15.9010 H       1  LIG1        0.0439
     44 N           9.9900    1.1590   11.1320 N.pl3   1  LIG1       -0.8341
     45 H          10.4100    0.6280   10.3840 H       1  LIG1        0.3790
     46 H           9.0130    1.0430   11.3580 H       1  LIG1        0.3711
@<TRIPOS>BOND
     1     1     2   ar
     2     2     3   ar
     3     3     4   ar
     4     4     5   ar
     5     5     6   ar
     6     6     1   ar
     7     6     7    1
     8     7     8    1
     9     7     9    1
    10     5    10   ar
    11    10    11    1
    12    10    12   ar
    13    12    13   ar
    14    13    14    1
    15    13    15   ar
    16    15    16    1
    17    15     4   ar
    18    12    17    1
    19    17    18    1
    20    18    19    1
    21    18    20    1
    22    18    21    1
    23    21    22   ar
    24    22    23    1
    25    22    24   ar
    26    24    25    1
    27    24    26   ar
    28    26    27   ar
    29    27    28    1
    30    27    29   ar
    31    29    21   ar
    32    29    30    1
    33    30    31    1
    34    31    32    1
    35    31    33    1
    36    31    34    1
    37    26    35    1
    38    35    36    1
    39    36    37    1
    40    36    38    1
    41    36    39    1
    42    17    40    1
    43    40    41    1
    44    40    42    1
    45    40    43    1
    46     2    44    1
    47    44    45    1
    48    44    46    1
