@<TRIPOS>MOLECULE
15_11
 46 48 0 0 0
SMALL
USER_CHARGES
****
From 3DB ct
@<TRIPOS>ATOM
      1 N          10.1530    2.7110   12.8260 N.ar    1  LIG1       -0.6683
      2 C          10.7480    2.0310   11.8460 C.ar    1  LIG1        0.7847
      3 N          12.0320    2.1560   11.5130 N.ar    1  LIG1       -0.6700
      4 C          12.7730    3.0310   12.2070 C.ar    1  LIG1        0.4598
      5 C          12.2620    3.7940   13.2530 C.ar    1  LIG1       -0.4521
      6 C          10.9080    3.5670   13.5320 C.ar    1  LIG1        0.6843
      7 N          10.2330    4.2630   14.5200 N.pl3   1  LIG1       -0.7656
      8 H          10.7130    4.4440   15.3950 H       1  LIG1        0.3384
      9 H           9.2530    4.0160   14.6220 H       1  LIG1        0.3269
     10 C          13.1090    4.7160   13.9370 C.ar    1  LIG1       -0.0769
     11 H          12.6620    5.3040   14.7350 H       1  LIG1        0.0911
     12 C          14.4630    4.8970   13.6110 C.ar    1  LIG1        0.1269
     13 C          14.9350    4.1050   12.5590 C.ar    1  LIG1       -0.1013
     14 H          15.9720    4.1550   12.2330 H       1  LIG1        0.1193
     15 C          14.1070    3.1980   11.8770 C.ar    1  LIG1       -0.2189
     16 H          14.5330    2.6100   11.0650 H       1  LIG1        0.1350
     17 N          15.2740    5.7940   14.2920 N.pl3   1  LIG1       -0.2582
     18 C          16.3210    6.5880   13.6190 C.3     1  LIG1        0.0333
     19 H          17.1690    5.9380   13.3650 H       1  LIG1        0.0417
     20 H          16.7230    7.3280   14.3220 H       1  LIG1        0.0696
     21 C          15.8710    7.2640   12.3320 C.ar    1  LIG1       -0.0756
     22 C          14.5380    7.6730   12.1290 C.ar    1  LIG1       -0.1787
     23 H          13.7990    7.5290   12.9150 H       1  LIG1        0.1333
     24 C          14.1290    8.2750   10.9360 C.ar    1  LIG1        0.2491
     25 C          15.0600    8.4630    9.9190 C.ar    1  LIG1       -0.2029
     26 H          14.7940    8.9270    8.9730 H       1  LIG1        0.1300
     27 C          16.3850    8.0480   10.0920 C.ar    1  LIG1       -0.2039
     28 H          17.0710    8.2110    9.2640 H       1  LIG1        0.1306
     29 C          16.7970    7.4460   11.2850 C.ar    1  LIG1        0.1949
     30 O          18.0700    6.9970   11.5280 O.3     1  LIG1       -0.2398
     31 C          19.0190    7.1090   10.4700 C.3     1  LIG1       -0.0091
     32 H          19.9680    6.7000   10.8310 H       1  LIG1        0.0683
     33 H          19.1880    8.1570   10.2010 H       1  LIG1        0.0438
     34 H          18.7120    6.5180    9.6010 H       1  LIG1        0.0495
     35 O          12.8090    8.6270   10.8920 O.3     1  LIG1       -0.2960
     36 C          12.3470    9.2460    9.6910 C.3     1  LIG1        0.0719
     37 H          11.2840    9.4680    9.8200 H       1  LIG1        0.0538
     38 H          12.4460    8.5680    8.8370 H       1  LIG1        0.0264
     39 H          12.8670   10.1920    9.5110 H       1  LIG1        0.0233
     40 C          15.0600    6.0790   15.7140 C.3     1  LIG1       -0.0228
     41 H          15.8650    6.6970   16.1280 H       1  LIG1        0.0663
     42 H          15.0480    5.1540   16.3020 H       1  LIG1        0.0271
     43 H          14.1200    6.6200   15.8620 H       1  LIG1        0.0456
     44 N           9.9950    1.1490   11.1360 N.pl3   1  LIG1       -0.8336
     45 H          10.4170    0.6160   10.3900 H       1  LIG1        0.3788
     46 H           9.0200    1.0240   11.3670 H       1  LIG1        0.3700
@<TRIPOS>BOND
     1     1     2   ar
     2     2     3   ar
     3     3     4   ar
     4     4     5   ar
     5     5     6   ar
     6     6     1   ar
     7     6     7    1
     8     7     8    1
     9     7     9    1
    10     5    10   ar
    11    10    11    1
    12    10    12   ar
    13    12    13   ar
    14    13    14    1
    15    13    15   ar
    16    15    16    1
    17    15     4   ar
    18    12    17    1
    19    17    18    1
    20    18    19    1
    21    18    20    1
    22    18    21    1
    23    21    22   ar
    24    22    23    1
    25    22    24   ar
    26    24    25   ar
    27    25    26    1
    28    25    27   ar
    29    27    28    1
    30    27    29   ar
    31    29    21   ar
    32    29    30    1
    33    30    31    1
    34    31    32    1
    35    31    33    1
    36    31    34    1
    37    24    35    1
    38    35    36    1
    39    36    37    1
    40    36    38    1
    41    36    39    1
    42    17    40    1
    43    40    41    1
    44    40    42    1
    45    40    43    1
    46     2    44    1
    47    44    45    1
    48    44    46    1
