@<TRIPOS>MOLECULE
15_10
 41 44 0 0 0
SMALL
USER_CHARGES
****
From 3DB ct
@<TRIPOS>ATOM
      1 N          10.1800    2.7370   12.8520 N.ar    1  LIG1       -0.6702
      2 C          10.7730    2.0540   11.8740 C.ar    1  LIG1        0.7791
      3 N          12.0570    2.1750   11.5380 N.ar    1  LIG1       -0.6544
      4 C          12.8000    3.0520   12.2250 C.ar    1  LIG1        0.4224
      5 C          12.2890    3.8230   13.2690 C.ar    1  LIG1       -0.4073
      6 C          10.9370    3.5960   13.5530 C.ar    1  LIG1        0.6834
      7 N          10.2650    4.2960   14.5410 N.pl3   1  LIG1       -0.7575
      8 H          10.7490    4.4810   15.4140 H       1  LIG1        0.3354
      9 H           9.2860    4.0490   14.6500 H       1  LIG1        0.3239
     10 C          13.1320    4.7500   13.9450 C.ar    1  LIG1       -0.1819
     11 H          12.7040    5.3490   14.7450 H       1  LIG1        0.1031
     12 C          14.4760    4.9110   13.6030 C.ar    1  LIG1        0.3069
     13 C          14.9630    4.1210   12.5620 C.ar    1  LIG1       -0.1310
     14 H          16.0040    4.2030   12.2520 H       1  LIG1        0.1201
     15 C          14.1360    3.2120   11.8890 C.ar    1  LIG1       -0.2061
     16 H          14.5580    2.6190   11.0790 H       1  LIG1        0.1383
     17 N          15.3260    5.7930   14.2310 N.pl3   1  LIG1       -0.7007
     18 H          15.1770    6.0010   15.2170 H       1  LIG1        0.3509
     19 C          16.4410    6.4680   13.5880 C.3     1  LIG1        0.1520
     20 H          17.2380    5.7620   13.3260 H       1  LIG1        0.0619
     21 H          16.8870    7.1920   14.2810 H       1  LIG1        0.0389
     22 C          15.9670    7.1900   12.3390 C.ar    1  LIG1       -0.0254
     23 C          16.8450    7.5270   11.2680 C.ar    1  LIG1       -0.0583
     24 C          16.3160    8.2100   10.1420 C.ar    1  LIG1        0.1840
     25 C          14.9510    8.5280   10.0920 C.ar    1  LIG1       -0.2235
     26 H          14.5360    9.0510    9.2300 H       1  LIG1        0.1362
     27 C          14.0970    8.1800   11.1340 C.ar    1  LIG1       -0.1024
     28 H          13.0390    8.4270   11.0790 H       1  LIG1        0.1131
     29 C          14.6000    7.5130   12.2470 C.ar    1  LIG1       -0.0912
     30 H          13.9160    7.2450   13.0520 H       1  LIG1        0.1166
     31 C          17.1560    8.5650    9.0740 C.ar    1  LIG1       -0.2047
     32 H          16.7560    9.0910    8.2070 H       1  LIG1        0.1229
     33 C          18.5150    8.2530    9.0940 C.ar    1  LIG1       -0.0754
     34 H          19.1520    8.5340    8.2580 H       1  LIG1        0.1021
     35 C          19.0490    7.5790   10.1840 C.ar    1  LIG1       -0.1129
     36 H          20.1080    7.3270   10.2040 H       1  LIG1        0.1091
     37 C          18.2260    7.2200   11.2540 C.ar    1  LIG1       -0.1047
     38 H          18.6860    6.6830   12.0830 H       1  LIG1        0.0891
     39 N          10.0170    1.1700   11.1680 N.pl3   1  LIG1       -0.8307
     40 H          10.4370    0.6370   10.4210 H       1  LIG1        0.3769
     41 H           9.0410    1.0530   11.3960 H       1  LIG1        0.3720
@<TRIPOS>BOND
     1     1     2   ar
     2     2     3   ar
     3     3     4   ar
     4     4     5   ar
     5     5     6   ar
     6     6     1   ar
     7     6     7    1
     8     7     8    1
     9     7     9    1
    10     5    10   ar
    11    10    11    1
    12    10    12   ar
    13    12    13   ar
    14    13    14    1
    15    13    15   ar
    16    15    16    1
    17    15     4   ar
    18    12    17    1
    19    17    18    1
    20    17    19    1
    21    19    20    1
    22    19    21    1
    23    19    22    1
    24    22    23   ar
    25    23    24   ar
    26    24    25   ar
    27    25    26    1
    28    25    27   ar
    29    27    28    1
    30    27    29   ar
    31    29    30    1
    32    29    22   ar
    33    24    31   ar
    34    31    32    1
    35    31    33   ar
    36    33    34    1
    37    33    35   ar
    38    35    36    1
    39    35    37   ar
    40    37    38    1
    41    37    23   ar
    42     2    39    1
    43    39    40    1
    44    39    41    1
