@<TRIPOS>MOLECULE
15_3
 43 45 0 0 0
SMALL
USER_CHARGES
****
From 3DB ct
@<TRIPOS>ATOM
      1 N          10.1830    2.7600   12.8740 N.ar    1  LIG1       -0.6612
      2 C          10.7490    2.0590   11.8930 C.ar    1  LIG1        0.7618
      3 N          12.0300    2.1550   11.5360 N.ar    1  LIG1       -0.6452
      4 C          12.8000    3.0230   12.2060 C.ar    1  LIG1        0.4090
      5 C          12.3170    3.8070   13.2540 C.ar    1  LIG1       -0.3735
      6 C          10.9660    3.6090   13.5590 C.ar    1  LIG1        0.6671
      7 N          10.3210    4.3280   14.5510 N.pl3   1  LIG1       -0.7522
      8 H          10.8230    4.5140   15.4140 H       1  LIG1        0.3351
      9 H           9.3390    4.1010   14.6760 H       1  LIG1        0.3223
     10 C          13.1890    4.7180   13.9110 C.ar    1  LIG1       -0.2184
     11 H          12.7980    5.3330   14.7200 H       1  LIG1        0.1105
     12 C          14.5340    4.8550   13.5490 C.ar    1  LIG1        0.3332
     13 C          14.9900    4.0580   12.5020 C.ar    1  LIG1       -0.1521
     14 H          16.0230    4.1080   12.1640 H       1  LIG1        0.1357
     15 C          14.1320    3.1610   11.8480 C.ar    1  LIG1       -0.2018
     16 H          14.5290    2.5590   11.0320 H       1  LIG1        0.1339
     17 N          15.3230    5.7550   14.2300 N.pl3   1  LIG1       -0.6966
     18 H          15.2300    5.8170   15.2430 H       1  LIG1        0.3432
     19 C          16.3170    6.6430   13.6390 C.3     1  LIG1        0.2479
     20 H          17.2080    6.0520   13.3940 H       1  LIG1        0.0223
     21 H          16.6320    7.3790   14.3860 H       1  LIG1        0.0184
     22 C          15.8370    7.2910   12.3530 C.ar    1  LIG1       -0.0583
     23 C          14.4620    7.5340   12.1530 C.ar    1  LIG1       -0.2238
     24 H          13.7510    7.2750   12.9370 H       1  LIG1        0.1546
     25 C          13.9850    8.1080   10.9730 C.ar    1  LIG1        0.2676
     26 C          14.8880    8.4270    9.9650 C.ar    1  LIG1       -0.2150
     27 H          14.5690    8.8720    9.0250 H       1  LIG1        0.1306
     28 C          16.2540    8.1700   10.1330 C.ar    1  LIG1       -0.1747
     29 H          16.9140    8.4290    9.3090 H       1  LIG1        0.1245
     30 C          16.7370    7.5980   11.3150 C.ar    1  LIG1        0.1579
     31 O          18.0530    7.2980   11.5460 O.3     1  LIG1       -0.2696
     32 C          18.9800    7.5410   10.4890 C.3     1  LIG1        0.0342
     33 H          19.9740    7.2550   10.8470 H       1  LIG1        0.0600
     34 H          19.0120    8.6040   10.2310 H       1  LIG1        0.0355
     35 H          18.7510    6.9230    9.6150 H       1  LIG1        0.0413
     36 O          12.6320    8.2990   10.9320 O.3     1  LIG1       -0.3073
     37 C          12.1020    8.8840    9.7430 C.3     1  LIG1        0.0956
     38 H          11.0240    9.0030    9.8830 H       1  LIG1        0.0485
     39 H          12.2570    8.2280    8.8800 H       1  LIG1        0.0215
     40 H          12.5280    9.8780    9.5680 H       1  LIG1        0.0169
     41 N           9.9660    1.1850   11.2050 N.pl3   1  LIG1       -0.8202
     42 H          10.3610    0.6410   10.4520 H       1  LIG1        0.3726
     43 H           8.9910    1.0920   11.4470 H       1  LIG1        0.3679
@<TRIPOS>BOND
     1     1     2   ar
     2     2     3   ar
     3     3     4   ar
     4     4     5   ar
     5     5     6   ar
     6     6     1   ar
     7     6     7    1
     8     7     8    1
     9     7     9    1
    10     5    10   ar
    11    10    11    1
    12    10    12   ar
    13    12    13   ar
    14    13    14    1
    15    13    15   ar
    16    15    16    1
    17    15     4   ar
    18    12    17    1
    19    17    18    1
    20    17    19    1
    21    19    20    1
    22    19    21    1
    23    19    22    1
    24    22    23   ar
    25    23    24    1
    26    23    25   ar
    27    25    26   ar
    28    26    27    1
    29    26    28   ar
    30    28    29    1
    31    28    30   ar
    32    30    22   ar
    33    30    31    1
    34    31    32    1
    35    32    33    1
    36    32    34    1
    37    32    35    1
    38    25    36    1
    39    36    37    1
    40    37    38    1
    41    37    39    1
    42    37    40    1
    43     2    41    1
    44    41    42    1
    45    41    43    1
