@<TRIPOS>MOLECULE
15_4
 43 45 0 0 0
SMALL
USER_CHARGES
****
From 3DB ct
@<TRIPOS>ATOM
      1 N          10.1820    2.7570   12.8590 N.ar    1  LIG1       -0.6644
      2 C          10.7600    2.0710   11.8730 C.ar    1  LIG1        0.7700
      3 N          12.0450    2.1730   11.5340 N.ar    1  LIG1       -0.6450
      4 C          12.8050    3.0330   12.2250 C.ar    1  LIG1        0.4004
      5 C          12.3090    3.8040   13.2770 C.ar    1  LIG1       -0.3628
      6 C          10.9550    3.5990   13.5640 C.ar    1  LIG1        0.6673
      7 N          10.2970    4.3040   14.5570 N.pl3   1  LIG1       -0.7472
      8 H          10.7860    4.4790   15.4280 H       1  LIG1        0.3329
      9 H           9.3140    4.0720   14.6650 H       1  LIG1        0.3213
     10 C          13.1700    4.7110   13.9580 C.ar    1  LIG1       -0.2339
     11 H          12.7550    5.3040   14.7670 H       1  LIG1        0.1126
     12 C          14.5140    4.8580   13.6100 C.ar    1  LIG1        0.3529
     13 C          14.9850    4.0650   12.5620 C.ar    1  LIG1       -0.1542
     14 H          16.0260    4.1340   12.2480 H       1  LIG1        0.1282
     15 C          14.1410    3.1730   11.8860 C.ar    1  LIG1       -0.1987
     16 H          14.5510    2.5800   11.0700 H       1  LIG1        0.1364
     17 N          15.3820    5.7250   14.2340 N.pl3   1  LIG1       -0.6913
     18 H          15.3470    5.7950   15.2500 H       1  LIG1        0.3486
     19 C          16.4120    6.5280   13.5940 C.3     1  LIG1        0.1537
     20 H          17.2380    5.8700   13.2980 H       1  LIG1        0.0398
     21 H          16.8360    7.2460   14.3070 H       1  LIG1        0.0383
     22 C          15.9030    7.2160   12.3450 C.ar    1  LIG1        0.1550
     23 C          16.7790    7.5570   11.3020 C.ar    1  LIG1       -0.4211
     24 H          17.8350    7.3030   11.3830 H       1  LIG1        0.1561
     25 C          16.3180    8.2120   10.1570 C.ar    1  LIG1        0.3947
     26 C          14.9660    8.5390   10.0570 C.ar    1  LIG1       -0.4126
     27 H          14.5690    9.0460    9.1820 H       1  LIG1        0.1490
     28 C          14.0760    8.2170   11.0890 C.ar    1  LIG1        0.3977
     29 C          14.5470    7.5640   12.2300 C.ar    1  LIG1       -0.3611
     30 H          13.8780    7.3120   13.0490 H       1  LIG1        0.1602
     31 O          12.7800    8.5990   10.8630 O.3     1  LIG1       -0.3061
     32 C          12.5050    9.2420    9.6190 C.3     1  LIG1        0.0651
     33 H          11.4450    9.5130    9.6120 H       1  LIG1        0.0527
     34 H          12.6820    8.5620    8.7790 H       1  LIG1        0.0362
     35 H          13.0870   10.1640    9.5150 H       1  LIG1        0.0317
     36 O          17.2800    8.4730    9.2200 O.3     1  LIG1       -0.2840
     37 C          18.6110    8.0710    9.5380 C.3     1  LIG1       -0.0035
     38 H          19.2520    8.3450    8.6940 H       1  LIG1        0.0723
     39 H          18.6730    6.9850    9.6660 H       1  LIG1        0.0492
     40 H          18.9820    8.5980   10.4230 H       1  LIG1        0.0443
     41 N           9.9850    1.2080   11.1620 N.pl3   1  LIG1       -0.8275
     42 H          10.3930    0.6710   10.4110 H       1  LIG1        0.3756
     43 H           9.0080    1.1070   11.3950 H       1  LIG1        0.3712
@<TRIPOS>BOND
     1     1     2   ar
     2     2     3   ar
     3     3     4   ar
     4     4     5   ar
     5     5     6   ar
     6     6     1   ar
     7     6     7    1
     8     7     8    1
     9     7     9    1
    10     5    10   ar
    11    10    11    1
    12    10    12   ar
    13    12    13   ar
    14    13    14    1
    15    13    15   ar
    16    15    16    1
    17    15     4   ar
    18    12    17    1
    19    17    18    1
    20    17    19    1
    21    19    20    1
    22    19    21    1
    23    19    22    1
    24    22    23   ar
    25    23    24    1
    26    23    25   ar
    27    25    26   ar
    28    26    27    1
    29    26    28   ar
    30    28    29   ar
    31    29    30    1
    32    29    22   ar
    33    28    31    1
    34    31    32    1
    35    32    33    1
    36    32    34    1
    37    32    35    1
    38    25    36    1
    39    36    37    1
    40    37    38    1
    41    37    39    1
    42    37    40    1
    43     2    41    1
    44    41    42    1
    45    41    43    1
