@<TRIPOS>MOLECULE
15_7
 47 49 0 0 0
SMALL
USER_CHARGES
****
From 3DB ct
@<TRIPOS>ATOM
      1 N          10.1780    2.7430   12.8510 N.ar    1  LIG1       -0.6582
      2 C          10.7660    2.0610   11.8700 C.ar    1  LIG1        0.7597
      3 N          12.0500    2.1740   11.5340 N.ar    1  LIG1       -0.6437
      4 C          12.7990    3.0440   12.2250 C.ar    1  LIG1        0.4154
      5 C          12.2930    3.8130   13.2730 C.ar    1  LIG1       -0.3755
      6 C          10.9400    3.5940   13.5560 C.ar    1  LIG1        0.6657
      7 N          10.2720    4.2940   14.5460 N.pl3   1  LIG1       -0.7504
      8 H          10.7580    4.4810   15.4170 H       1  LIG1        0.3337
      9 H           9.2910    4.0530   14.6550 H       1  LIG1        0.3216
     10 C          13.1420    4.7310   13.9530 C.ar    1  LIG1       -0.2088
     11 H          12.7180    5.3260   14.7580 H       1  LIG1        0.1104
     12 C          14.4870    4.8870   13.6110 C.ar    1  LIG1        0.2876
     13 C          14.9680    4.0970   12.5660 C.ar    1  LIG1       -0.1185
     14 H          16.0100    4.1730   12.2560 H       1  LIG1        0.1329
     15 C          14.1350    3.1960   11.8890 C.ar    1  LIG1       -0.2152
     16 H          14.5530    2.6050   11.0760 H       1  LIG1        0.1352
     17 N          15.3460    5.7610   14.2390 N.pl3   1  LIG1       -0.6406
     18 H          15.2880    5.8540   15.2520 H       1  LIG1        0.3303
     19 C          16.3830    6.5570   13.5960 C.3     1  LIG1        0.1566
     20 H          17.2010    5.8890   13.2980 H       1  LIG1        0.0490
     21 H          16.8120    7.2560   14.3220 H       1  LIG1        0.0448
     22 C          15.8850    7.2520   12.3460 C.ar    1  LIG1       -0.1359
     23 C          14.5340    7.6260   12.2350 C.ar    1  LIG1       -0.0116
     24 H          13.8410    7.4230   13.0520 H       1  LIG1        0.1200
     25 C          14.0610    8.2830   11.0980 C.ar    1  LIG1       -0.2710
     26 H          13.0160    8.5820   11.0440 H       1  LIG1        0.1528
     27 C          14.9330    8.5770   10.0510 C.ar    1  LIG1        0.2285
     28 C          16.2650    8.1510   10.0980 C.ar    1  LIG1        0.0184
     29 C          16.7320    7.4890   11.2480 C.ar    1  LIG1        0.1240
     30 O          18.0560    7.1240   11.3310 O.3     1  LIG1       -0.2403
     31 C          18.2430    5.8070   10.7980 C.3     1  LIG1        0.0210
     32 H          19.2820    5.5190   10.9840 H       1  LIG1        0.0545
     33 H          18.0750    5.7890    9.7170 H       1  LIG1        0.0427
     34 H          17.5940    5.0790   11.2970 H       1  LIG1        0.0491
     35 O          17.1760    8.4120    9.1040 O.3     1  LIG1       -0.2842
     36 C          18.4750    7.8770    9.3710 C.3     1  LIG1        0.0687
     37 H          18.5770    6.8870    8.9170 H       1  LIG1        0.0241
     38 H          18.7030    7.8380   10.4430 H       1  LIG1        0.0264
     39 H          19.2080    8.5370    8.8970 H       1  LIG1        0.0571
     40 O          14.4300    9.2610    8.9750 O.3     1  LIG1       -0.2860
     41 C          15.4640    9.4720    8.0070 C.3     1  LIG1        0.0881
     42 H          15.0230   10.0090    7.1610 H       1  LIG1        0.0357
     43 H          15.8610    8.5210    7.6360 H       1  LIG1        0.0310
     44 H          16.2700   10.0890    8.4190 H       1  LIG1        0.0317
     45 N          10.0030    1.1860   11.1590 N.pl3   1  LIG1       -0.8177
     46 H          10.4180    0.6560   10.4070 H       1  LIG1        0.3732
     47 H           9.0250    1.0780   11.3850 H       1  LIG1        0.3677
@<TRIPOS>BOND
     1     1     2   ar
     2     2     3   ar
     3     3     4   ar
     4     4     5   ar
     5     5     6   ar
     6     6     1   ar
     7     6     7    1
     8     7     8    1
     9     7     9    1
    10     5    10   ar
    11    10    11    1
    12    10    12   ar
    13    12    13   ar
    14    13    14    1
    15    13    15   ar
    16    15    16    1
    17    15     4   ar
    18    12    17    1
    19    17    18    1
    20    17    19    1
    21    19    20    1
    22    19    21    1
    23    19    22    1
    24    22    23   ar
    25    23    24    1
    26    23    25   ar
    27    25    26    1
    28    25    27   ar
    29    27    28   ar
    30    28    29   ar
    31    29    22   ar
    32    29    30    1
    33    30    31    1
    34    31    32    1
    35    31    33    1
    36    31    34    1
    37    28    35    1
    38    35    36    1
    39    36    37    1
    40    36    38    1
    41    36    39    1
    42    27    40    1
    43    40    41    1
    44    41    42    1
    45    41    43    1
    46    41    44    1
    47     2    45    1
    48    45    46    1
    49    45    47    1
