@<TRIPOS>MOLECULE
16_10
 44 46 0 0 0
SMALL
USER_CHARGES
****
From 3DB ct
@<TRIPOS>ATOM
      1 N          10.5030    2.8110   13.2830 N.ar    1  LIG1       -0.7050
      2 C          10.6620    2.0300   12.2120 C.ar    1  LIG1        0.8291
      3 N          11.7470    1.9760   11.4510 N.ar    1  LIG1       -0.5830
      4 C          12.7170    2.8170   11.8410 C.ar    1  LIG1        0.2454
      5 C          12.6810    3.6940   12.9150 C.ar    1  LIG1       -0.5200
      6 C          11.4920    3.6450   13.6700 C.ar    1  LIG1        0.7706
      7 N          11.2450    4.3770   14.8050 N.pl3   1  LIG1       -0.7800
      8 H          11.9250    4.9620   15.2630 H       1  LIG1        0.3241
      9 H          10.3580    4.2380   15.2750 H       1  LIG1        0.3346
     10 C          13.9130    4.4680   12.9920 C.ar    1  LIG1        0.0079
     11 C          14.8100    4.0660   12.0140 C.ar    1  LIG1       -0.3272
     12 H          15.8140    4.4360   11.8450 H       1  LIG1        0.2299
     13 S          14.1840    2.8640   10.9830 S.2     1  LIG1        0.1688
     14 C          14.1940    5.5440   14.0140 C.3     1  LIG1        0.4162
     15 H          14.5700    5.0350   14.9110 H       1  LIG1        0.0068
     16 H          13.2480    6.0350   14.2680 H       1  LIG1        0.0088
     17 N          15.1300    6.5900   13.6220 N.pl3   1  LIG1       -0.9851
     18 H          15.9450    6.7160   14.2200 H       1  LIG1        0.3815
     19 C          15.1720    7.2180   12.3850 C.ar    1  LIG1        1.0305
     20 C          16.4110    7.6120   11.8280 C.ar    1  LIG1       -0.9231
     21 C          16.4730    8.2590   10.5860 C.ar    1  LIG1        0.5028
     22 C          15.2890    8.5880    9.9180 C.ar    1  LIG1       -0.2017
     23 C          14.0460    8.2050   10.4380 C.ar    1  LIG1        0.5093
     24 C          14.0020    7.5300   11.6660 C.ar    1  LIG1       -0.7240
     25 H          13.0430    7.2370   12.0800 H       1  LIG1        0.2297
     26 O          12.9510    8.5380    9.6820 O.3     1  LIG1       -0.3045
     27 C          13.1890    9.0880    8.3890 C.3     1  LIG1        0.0473
     28 H          12.2160    9.2880    7.9290 H       1  LIG1        0.0512
     29 H          13.7200    8.3760    7.7500 H       1  LIG1        0.0434
     30 H          13.7260   10.0400    8.4590 H       1  LIG1        0.0533
     31 O          15.3440    9.2440    8.7090 O.3     1  LIG1       -0.2248
     32 C          16.7090    9.4710    8.3390 C.3     1  LIG1       -0.0640
     33 H          16.7110   10.0130    7.3890 H       1  LIG1        0.0560
     34 H          17.2410    8.5250    8.1910 H       1  LIG1        0.0673
     35 H          17.2250   10.0870    9.0830 H       1  LIG1        0.0821
     36 O          17.6870    8.6390   10.0620 O.3     1  LIG1       -0.2947
     37 C          18.7540    8.2040   10.9120 C.3     1  LIG1        0.0264
     38 H          19.6760    8.6690   10.5530 H       1  LIG1        0.0402
     39 H          18.8800    7.1180   10.8600 H       1  LIG1        0.0463
     40 H          18.5970    8.5180   11.9500 H       1  LIG1        0.0468
     41 BR         18.0310    7.2470   12.7790 Br      1  LIG1        0.1609
     42 N           9.6220    1.2160   11.8780 N.pl3   1  LIG1       -0.8567
     43 H           9.6980    0.6070   11.0770 H       1  LIG1        0.3878
     44 H           8.7800    1.2290   12.4350 H       1  LIG1        0.3886
@<TRIPOS>BOND
     1     1     2   ar
     2     2     3   ar
     3     3     4   ar
     4     4     5   ar
     5     5     6   ar
     6     6     1   ar
     7     6     7    1
     8     7     8    1
     9     7     9    1
    10     5    10   ar
    11    10    11   ar
    12    11    12    1
    13    11    13   ar
    14    13     4   ar
    15    10    14    1
    16    14    15    1
    17    14    16    1
    18    14    17    1
    19    17    18    1
    20    17    19    1
    21    19    20   ar
    22    20    21   ar
    23    21    22   ar
    24    22    23   ar
    25    23    24   ar
    26    24    25    1
    27    24    19   ar
    28    23    26    1
    29    26    27    1
    30    27    28    1
    31    27    29    1
    32    27    30    1
    33    22    31    1
    34    31    32    1
    35    32    33    1
    36    32    34    1
    37    32    35    1
    38    21    36    1
    39    36    37    1
    40    37    38    1
    41    37    39    1
    42    37    40    1
    43    20    41    1
    44     2    42    1
    45    42    43    1
    46    42    44    1
