@<TRIPOS>MOLECULE
16_11
 47 49 0 0 0
SMALL
USER_CHARGES
****
From 3DB ct
@<TRIPOS>ATOM
      1 N          10.1410    2.6150   12.8960 N.ar    1  LIG1       -0.6855
      2 C          10.7420    1.9490   11.9100 C.ar    1  LIG1        0.8109
      3 N          12.0130    2.1210   11.5450 N.ar    1  LIG1       -0.6743
      4 C          12.7350    3.0330   12.2090 C.ar    1  LIG1        0.5045
      5 C          12.2100    3.7890   13.2610 C.ar    1  LIG1       -0.5015
      6 C          10.8750    3.5100   13.5750 C.ar    1  LIG1        0.7116
      7 N          10.1960    4.1890   14.5720 N.pl3   1  LIG1       -0.7563
      8 H          10.6920    4.4070   15.4300 H       1  LIG1        0.3332
      9 H           9.2300    3.9020   14.7060 H       1  LIG1        0.3279
     10 C          13.0260    4.7520   13.9130 C.ar    1  LIG1        0.0090
     11 H          12.6110    5.3550   14.7200 H       1  LIG1        0.1042
     12 C          14.3600    4.9500   13.5330 C.ar    1  LIG1       -0.0284
     13 C          14.8660    4.1880   12.4800 C.ar    1  LIG1        0.0002
     14 H          15.8930    4.3260   12.1440 H       1  LIG1        0.1035
     15 C          14.0560    3.2450   11.8370 C.ar    1  LIG1       -0.2862
     16 H          14.4770    2.6650   11.0170 H       1  LIG1        0.1456
     17 C          15.2160    5.9900   14.2170 C.3     1  LIG1       -0.1084
     18 H          15.5470    5.6010   15.1860 H       1  LIG1        0.1079
     19 H          14.6140    6.8840   14.4290 H       1  LIG1        0.1010
     20 N          16.3350    6.3360   13.3470 N.pl3   1  LIG1       -0.6173
     21 H          16.9830    5.5610   13.2040 H       1  LIG1        0.3324
     22 C          16.0490    7.0880   12.2020 C.ar    1  LIG1        0.8094
     23 C          14.7630    7.6440   12.0870 C.ar    1  LIG1       -0.5634
     24 H          14.0150    7.4430   12.8520 H       1  LIG1        0.1932
     25 C          14.4280    8.4600   11.0070 C.ar    1  LIG1        0.4427
     26 C          15.3590    8.7140    9.9990 C.ar    1  LIG1       -0.1796
     27 C          16.6610    8.2150   10.1170 C.ar    1  LIG1        0.5480
     28 C          17.0010    7.3850   11.2020 C.ar    1  LIG1       -0.8990
     29 BR         18.7360    6.5830   11.2450 Br      1  LIG1        0.1594
     30 O          17.5800    8.4680    9.1240 O.3     1  LIG1       -0.3218
     31 C          18.8110    7.7910    9.4040 C.3     1  LIG1        0.0638
     32 H          19.4520    7.8910    8.5230 H       1  LIG1        0.0465
     33 H          18.6490    6.7230    9.5870 H       1  LIG1        0.0338
     34 H          19.3280    8.2480   10.2530 H       1  LIG1        0.0321
     35 O          15.0100    9.4960    8.9260 O.3     1  LIG1       -0.2511
     36 C          16.1270    9.6330    8.0400 C.3     1  LIG1        0.0118
     37 H          15.8130   10.2660    7.2050 H       1  LIG1        0.0557
     38 H          16.4320    8.6620    7.6340 H       1  LIG1        0.0397
     39 H          16.9710   10.1210    8.5380 H       1  LIG1        0.0434
     40 O          13.1470    8.9420   10.9240 O.3     1  LIG1       -0.3088
     41 C          13.0000    9.7420    9.7460 C.3     1  LIG1        0.0569
     42 H          11.9760   10.1270    9.7290 H       1  LIG1        0.0476
     43 H          13.1540    9.1470    8.8390 H       1  LIG1        0.0439
     44 H          13.6850   10.5980    9.7630 H       1  LIG1        0.0356
     45 N          10.0080    1.0300   11.2250 N.pl3   1  LIG1       -0.8318
     46 H          10.4340    0.5100   10.4730 H       1  LIG1        0.3824
     47 H           9.0430    0.8750   11.4740 H       1  LIG1        0.3755
@<TRIPOS>BOND
     1     1     2   ar
     2     2     3   ar
     3     3     4   ar
     4     4     5   ar
     5     5     6   ar
     6     6     1   ar
     7     6     7    1
     8     7     8    1
     9     7     9    1
    10     5    10   ar
    11    10    11    1
    12    10    12   ar
    13    12    13   ar
    14    13    14    1
    15    13    15   ar
    16    15    16    1
    17    15     4   ar
    18    12    17    1
    19    17    18    1
    20    17    19    1
    21    17    20    1
    22    20    21    1
    23    20    22    1
    24    22    23   ar
    25    23    24    1
    26    23    25   ar
    27    25    26   ar
    28    26    27   ar
    29    27    28   ar
    30    28    22   ar
    31    28    29    1
    32    27    30    1
    33    30    31    1
    34    31    32    1
    35    31    33    1
    36    31    34    1
    37    26    35    1
    38    35    36    1
    39    36    37    1
    40    36    38    1
    41    36    39    1
    42    25    40    1
    43    40    41    1
    44    41    42    1
    45    41    43    1
    46    41    44    1
    47     2    45    1
    48    45    46    1
    49    45    47    1
