@<TRIPOS>MOLECULE
19_1
 51 53 0 0 0
SMALL
USER_CHARGES
****
From 3DB ct
@<TRIPOS>ATOM
      1 C          12.2000    3.8600   13.2730 C.ar    1  LIG1       -0.5900
      2 C          10.8450    3.4660   13.6300 C.ar    1  LIG1        0.7569
      3 N          10.1440    2.5940   12.8960 N.ar    1  LIG1       -0.7093
      4 C          10.6980    1.9790   11.8240 C.ar    1  LIG1        0.8088
      5 N          12.0400    2.1470   11.5440 N.ar    1  LIG1       -0.6704
      6 C          12.7710    3.0540   12.3160 C.ar    1  LIG1        0.4510
      7 C          14.2620    3.0500   12.0220 C.3     1  LIG1       -0.0539
      8 H          14.5770    2.0210   11.7850 H       1  LIG1        0.0522
      9 H          14.4710    3.6520   11.1200 H       1  LIG1        0.0343
     10 C          15.0210    3.6230   13.2260 C.3     1  LIG1       -0.1162
     11 H          16.0900    3.7360   12.9740 H       1  LIG1        0.0217
     12 H          14.9700    2.9340   14.0880 H       1  LIG1        0.0505
     13 C          14.3780    4.9850   13.5720 C.3     1  LIG1        0.2310
     14 H          14.1740    5.4270   12.5810 H       1  LIG1        0.0236
     15 C          12.9590    4.8530   14.1790 C.3     1  LIG1       -0.0693
     16 H          13.0260    4.4130   15.1920 H       1  LIG1        0.0585
     17 H          12.5200    5.6950   14.2030 H       1  LIG1        0.0326
     18 C          15.3640    5.9040   14.3000 C.3     1  LIG1       -0.1723
     19 H          14.8670    6.7660   14.7780 H       1  LIG1        0.0970
     20 H          15.8530    5.3580   15.1230 H       1  LIG1        0.0837
     21 N          16.3870    6.4120   13.4140 N.pl3   1  LIG1       -0.4255
     22 H          17.2290    5.8570   13.3820 H       1  LIG1        0.2881
     23 C          16.0360    7.0980   12.2490 C.ar    1  LIG1        0.2325
     24 C          14.7390    7.6590   12.0820 C.ar    1  LIG1       -0.2424
     25 H          13.9350    7.5460   12.8290 H       1  LIG1        0.1301
     26 C          14.4550    8.4760   10.9900 C.ar    1  LIG1        0.1831
     27 C          15.4170    8.7250   10.0190 C.ar    1  LIG1       -0.0777
     28 C          16.6720    8.2010   10.0950 C.ar    1  LIG1        0.2988
     29 C          17.0030    7.4330   11.2800 C.ar    1  LIG1       -0.4155
     30 H          17.9040    7.1550   11.3930 H       1  LIG1        0.1475
     31 O          17.6310    8.4120    9.1150 O.3     1  LIG1       -0.2359
     32 C          18.9000    7.7940    9.3410 C.3     1  LIG1       -0.0453
     33 H          19.3640    8.1630   10.2690 H       1  LIG1        0.0567
     34 H          18.8030    6.7000    9.4060 H       1  LIG1        0.0586
     35 H          19.5410    8.0510    8.4890 H       1  LIG1        0.0747
     36 O          15.0560    9.4900    8.8990 O.3     1  LIG1       -0.2097
     37 C          16.0460    9.7460    7.9020 C.3     1  LIG1       -0.0096
     38 H          16.2010    8.8750    7.2470 H       1  LIG1        0.0522
     39 H          15.6770   10.5820    7.2930 H       1  LIG1        0.0522
     40 H          17.0110   10.0270    8.3490 H       1  LIG1        0.0465
     41 O          13.1540    8.9830   10.8180 O.3     1  LIG1       -0.2700
     42 C          12.8360    9.8200    9.7100 C.3     1  LIG1        0.0599
     43 H          13.7120   10.3640    9.3280 H       1  LIG1        0.0397
     44 H          12.4090    9.2210    8.8890 H       1  LIG1        0.0404
     45 H          12.0860   10.5490   10.0500 H       1  LIG1        0.0346
     46 N          10.0000    1.2030   11.0730 N.pl3   1  LIG1       -0.8193
     47 H           9.1310    1.0630   11.2570 H       1  LIG1        0.3732
     48 H          10.3810    0.8010   10.3640 H       1  LIG1        0.3756
     49 N          10.1820    3.9600   14.7110 N.pl3   1  LIG1       -0.7950
     50 H          10.5820    4.5620   15.2480 H       1  LIG1        0.3467
     51 H           9.3440    3.6840   14.8900 H       1  LIG1        0.3345
@<TRIPOS>BOND
     1     1     2   ar
     2     2     3   ar
     3     3     4   ar
     4     4     5   ar
     5     5     6   ar
     6     6     1   ar
     7     6     7    1
     8     7     8    1
     9     7     9    1
    10     7    10    1
    11    10    11    1
    12    10    12    1
    13    10    13    1
    14    13    14    1
    15    13    15    1
    16    15    16    1
    17    15    17    1
    18    15     1    1
    19    13    18    1
    20    18    19    1
    21    18    20    1
    22    18    21    1
    23    21    22    1
    24    21    23    1
    25    23    24   ar
    26    24    25    1
    27    24    26   ar
    28    26    27   ar
    29    27    28   ar
    30    28    29   ar
    31    29    30    1
    32    29    23   ar
    33    28    31    1
    34    31    32    1
    35    32    33    1
    36    32    34    1
    37    32    35    1
    38    27    36    1
    39    36    37    1
    40    37    38    1
    41    37    39    1
    42    37    40    1
    43    26    41    1
    44    41    42    1
    45    42    43    1
    46    42    44    1
    47    42    45    1
    48     4    46    1
    49    46    47    1
    50    46    48    1
    51     2    49    1
    52    49    50    1
    53    49    51    1
