@<TRIPOS>MOLECULE
19_15
 39 41 0 0 0
SMALL
USER_CHARGES
****
From 3DB ct
@<TRIPOS>ATOM
      1 C          12.2000    3.8600   13.2730 C.ar    1  LIG1       -0.5652
      2 C          10.8450    3.4660   13.6300 C.ar    1  LIG1        0.7363
      3 N          10.1440    2.5940   12.8960 N.ar    1  LIG1       -0.7026
      4 C          10.6980    1.9790   11.8240 C.ar    1  LIG1        0.8063
      5 N          12.0400    2.1470   11.5440 N.ar    1  LIG1       -0.6676
      6 C          12.7710    3.0540   12.3160 C.ar    1  LIG1        0.4404
      7 C          14.2620    3.0500   12.0220 C.3     1  LIG1       -0.0425
      8 H          14.5770    2.0210   11.7850 H       1  LIG1        0.0491
      9 H          14.4710    3.6520   11.1200 H       1  LIG1        0.0356
     10 C          15.0210    3.6230   13.2260 C.3     1  LIG1       -0.1044
     11 H          16.0900    3.7360   12.9740 H       1  LIG1        0.0221
     12 H          14.9700    2.9340   14.0880 H       1  LIG1        0.0490
     13 C          14.3780    4.9850   13.5720 C.3     1  LIG1        0.1844
     14 H          14.1740    5.4270   12.5810 H       1  LIG1        0.0183
     15 C          12.9590    4.8530   14.1790 C.3     1  LIG1       -0.0601
     16 H          13.0260    4.4130   15.1920 H       1  LIG1        0.0506
     17 H          12.5200    5.6950   14.2030 H       1  LIG1        0.0297
     18 C          15.3640    5.9040   14.3000 C.3     1  LIG1       -0.0717
     19 H          14.8670    6.7660   14.7780 H       1  LIG1        0.0761
     20 H          15.8530    5.3580   15.1230 H       1  LIG1        0.0784
     21 N          16.3870    6.4120   13.4140 N.pl3   1  LIG1       -0.6198
     22 H          17.2160    5.8470   13.3480 H       1  LIG1        0.3398
     23 C          16.0360    7.0980   12.2490 C.ar    1  LIG1        0.3011
     24 C          14.7390    7.6590   12.0820 C.ar    1  LIG1       -0.1409
     25 H          13.9350    7.5460   12.8290 H       1  LIG1        0.1045
     26 C          14.4550    8.4760   10.9900 C.ar    1  LIG1       -0.1906
     27 H          13.4450    8.9220   10.8860 H       1  LIG1        0.1275
     28 C          15.4170    8.7250   10.0190 C.ar    1  LIG1        0.1572
     29 H          15.1200    9.3580    9.1580 H       1  LIG1        0.0407
     30 C          16.6720    8.2010   10.0950 C.ar    1  LIG1       -0.4717
     31 C          17.0030    7.4330   11.2800 C.ar    1  LIG1       -0.0054
     32 H          18.0370    7.0520   11.3790 H       1  LIG1        0.0605
     33 BR         17.9800    8.5400    8.7310 Br      1  LIG1        0.1148
     34 N          10.0000    1.2030   11.0730 N.pl3   1  LIG1       -0.8192
     35 H           9.1310    1.0630   11.2570 H       1  LIG1        0.3734
     36 H          10.3810    0.8010   10.3640 H       1  LIG1        0.3766
     37 N          10.1820    3.9600   14.7110 N.pl3   1  LIG1       -0.7880
     38 H          10.5820    4.5620   15.2480 H       1  LIG1        0.3436
     39 H           9.3440    3.6840   14.8900 H       1  LIG1        0.3338
@<TRIPOS>BOND
     1     1     2   ar
     2     2     3   ar
     3     3     4   ar
     4     4     5   ar
     5     5     6   ar
     6     6     1   ar
     7     6     7    1
     8     7     8    1
     9     7     9    1
    10     7    10    1
    11    10    11    1
    12    10    12    1
    13    10    13    1
    14    13    14    1
    15    13    15    1
    16    15    16    1
    17    15    17    1
    18    15     1    1
    19    13    18    1
    20    18    19    1
    21    18    20    1
    22    18    21    1
    23    21    22    1
    24    21    23    1
    25    23    24   ar
    26    24    25    1
    27    24    26   ar
    28    26    27    1
    29    26    28   ar
    30    28    29    1
    31    28    30   ar
    32    30    31   ar
    33    31    32    1
    34    31    23   ar
    35    30    33    1
    36     4    34    1
    37    34    35    1
    38    34    36    1
    39     2    37    1
    40    37    38    1
    41    37    39    1
