@<TRIPOS>MOLECULE
19_7
 53 55 0 0 0
SMALL
USER_CHARGES
****
From 3DB ct
@<TRIPOS>ATOM
      1 C          12.2000    3.8600   13.2730 C.ar    1  LIG1       -0.5887
      2 C          10.8450    3.4660   13.6300 C.ar    1  LIG1        0.7419
      3 N          10.1440    2.5940   12.8960 N.ar    1  LIG1       -0.7025
      4 C          10.6980    1.9790   11.8240 C.ar    1  LIG1        0.8027
      5 N          12.0400    2.1470   11.5440 N.ar    1  LIG1       -0.6672
      6 C          12.7710    3.0540   12.3160 C.ar    1  LIG1        0.4552
      7 C          14.2620    3.0500   12.0220 C.3     1  LIG1       -0.0819
      8 H          14.5770    2.0210   11.7850 H       1  LIG1        0.0550
      9 H          14.4710    3.6520   11.1200 H       1  LIG1        0.0411
     10 C          15.0210    3.6230   13.2260 C.3     1  LIG1       -0.0821
     11 H          16.0900    3.7360   12.9740 H       1  LIG1        0.0205
     12 H          14.9700    2.9340   14.0880 H       1  LIG1        0.0384
     13 C          14.3780    4.9850   13.5720 C.3     1  LIG1        0.2317
     14 H          14.1740    5.4270   12.5810 H       1  LIG1        0.0045
     15 C          12.9590    4.8530   14.1790 C.3     1  LIG1       -0.0236
     16 H          13.0260    4.4130   15.1920 H       1  LIG1        0.0404
     17 H          12.5200    5.6950   14.2030 H       1  LIG1        0.0168
     18 C          15.3640    5.9040   14.3000 C.3     1  LIG1       -0.1277
     19 H          14.8670    6.7660   14.7780 H       1  LIG1        0.0823
     20 H          15.8530    5.3580   15.1230 H       1  LIG1        0.0741
     21 N          16.3870    6.4120   13.4140 N.pl3   1  LIG1       -0.4272
     22 H          17.2160    5.8470   13.3480 H       1  LIG1        0.2813
     23 C          16.0360    7.0980   12.2490 C.ar    1  LIG1        0.2128
     24 C          14.7390    7.6590   12.0820 C.ar    1  LIG1       -0.2856
     25 H          13.9350    7.5460   12.8290 H       1  LIG1        0.1386
     26 C          14.4550    8.4760   10.9900 C.ar    1  LIG1        0.2530
     27 C          15.4170    8.7250   10.0190 C.ar    1  LIG1       -0.2733
     28 H          15.2080    9.2760    9.2740 H       1  LIG1        0.1075
     29 C          16.6720    8.2010   10.0950 C.ar    1  LIG1       -0.0703
     30 H          17.2900    8.3450    9.3890 H       1  LIG1        0.0965
     31 C          17.0030    7.4330   11.2800 C.ar    1  LIG1       -0.0238
     32 O          18.2370    7.0520   11.4350 O.3     1  LIG1       -0.2799
     33 C          19.3270    7.3130   10.5450 C.3     1  LIG1        0.2463
     34 H          19.4900    8.3930   10.3970 H       1  LIG1        0.0054
     35 H          18.9750    6.9210    9.5770 H       1  LIG1        0.0062
     36 C          20.6410    6.6110   10.9110 C.3     1  LIG1       -0.2209
     37 H          21.4020    6.7830   10.1340 H       1  LIG1        0.0514
     38 H          21.0420    6.9740   11.8710 H       1  LIG1        0.0626
     39 H          20.4800    5.5250   11.0040 H       1  LIG1        0.0645
     40 O          13.1840    8.9890   10.9440 O.3     1  LIG1       -0.3216
     41 C          12.7570    9.8110    9.8590 C.3     1  LIG1        0.2642
     42 H          13.3900   10.7120    9.7880 H       1  LIG1        0.0030
     43 H          12.8560    9.2680    8.9040 H       1  LIG1        0.0027
     44 C          11.2970   10.2120   10.0830 C.3     1  LIG1       -0.2250
     45 H          10.9160   10.8490    9.2700 H       1  LIG1        0.0498
     46 H          10.6600    9.3140   10.1430 H       1  LIG1        0.0677
     47 H          11.1930   10.7650   11.0300 H       1  LIG1        0.0666
     48 N          10.0000    1.2030   11.0730 N.pl3   1  LIG1       -0.8206
     49 H           9.1310    1.0630   11.2570 H       1  LIG1        0.3733
     50 H          10.3810    0.8010   10.3640 H       1  LIG1        0.3756
     51 N          10.1820    3.9600   14.7110 N.pl3   1  LIG1       -0.7925
     52 H          10.5820    4.5620   15.2480 H       1  LIG1        0.3470
     53 H           9.3440    3.6840   14.8900 H       1  LIG1        0.3337
@<TRIPOS>BOND
     1     1     2   ar
     2     2     3   ar
     3     3     4   ar
     4     4     5   ar
     5     5     6   ar
     6     6     1   ar
     7     6     7    1
     8     7     8    1
     9     7     9    1
    10     7    10    1
    11    10    11    1
    12    10    12    1
    13    10    13    1
    14    13    14    1
    15    13    15    1
    16    15    16    1
    17    15    17    1
    18    15     1    1
    19    13    18    1
    20    18    19    1
    21    18    20    1
    22    18    21    1
    23    21    22    1
    24    21    23    1
    25    23    24   ar
    26    24    25    1
    27    24    26   ar
    28    26    27   ar
    29    27    28    1
    30    27    29   ar
    31    29    30    1
    32    29    31   ar
    33    31    23   ar
    34    31    32    1
    35    32    33    1
    36    33    34    1
    37    33    35    1
    38    33    36    1
    39    36    37    1
    40    36    38    1
    41    36    39    1
    42    26    40    1
    43    40    41    1
    44    41    42    1
    45    41    43    1
    46    41    44    1
    47    44    45    1
    48    44    46    1
    49    44    47    1
    50     4    48    1
    51    48    49    1
    52    48    50    1
    53     2    51    1
    54    51    52    1
    55    51    53    1
