@<TRIPOS>MOLECULE
19_8
 56 58 0 0 0
SMALL
USER_CHARGES
****
From 3DB ct
@<TRIPOS>ATOM
      1 C          12.2000    3.8600   13.2730 C.ar    1  LIG1       -0.6154
      2 C          10.8450    3.4660   13.6300 C.ar    1  LIG1        0.7618
      3 N          10.1440    2.5940   12.8960 N.ar    1  LIG1       -0.7104
      4 C          10.6980    1.9790   11.8240 C.ar    1  LIG1        0.8088
      5 N          12.0400    2.1470   11.5440 N.ar    1  LIG1       -0.6674
      6 C          12.7710    3.0540   12.3160 C.ar    1  LIG1        0.4633
      7 C          14.2620    3.0500   12.0220 C.3     1  LIG1       -0.0943
      8 H          14.5770    2.0210   11.7850 H       1  LIG1        0.0592
      9 H          14.4710    3.6520   11.1200 H       1  LIG1        0.0442
     10 C          15.0210    3.6230   13.2260 C.3     1  LIG1       -0.0691
     11 H          16.0900    3.7360   12.9740 H       1  LIG1        0.0216
     12 H          14.9700    2.9340   14.0880 H       1  LIG1        0.0474
     13 C          14.3780    4.9850   13.5720 C.3     1  LIG1        0.1625
     14 H          14.1740    5.4270   12.5810 H       1  LIG1        0.0406
     15 C          12.9590    4.8530   14.1790 C.3     1  LIG1        0.0101
     16 H          13.0260    4.4130   15.1920 H       1  LIG1        0.0423
     17 H          12.5200    5.6950   14.2030 H       1  LIG1        0.0173
     18 C          15.3640    5.9040   14.3000 C.3     1  LIG1       -0.2397
     19 H          14.8670    6.7660   14.7780 H       1  LIG1        0.0866
     20 H          15.8530    5.3580   15.1230 H       1  LIG1        0.1154
     21 N          16.3870    6.4120   13.4140 N.pl3   1  LIG1       -0.1852
     22 C          16.0360    7.0980   12.2490 C.ar    1  LIG1        0.1846
     23 C          14.7390    7.6590   12.0820 C.ar    1  LIG1       -0.3567
     24 H          13.9350    7.5460   12.8290 H       1  LIG1        0.1617
     25 C          14.4550    8.4760   10.9900 C.ar    1  LIG1        0.2920
     26 C          15.4170    8.7250   10.0190 C.ar    1  LIG1       -0.2465
     27 H          15.2080    9.2760    9.2740 H       1  LIG1        0.1093
     28 C          16.6720    8.2010   10.0950 C.ar    1  LIG1       -0.1462
     29 H          17.2900    8.3450    9.3890 H       1  LIG1        0.1203
     30 C          17.0030    7.4330   11.2800 C.ar    1  LIG1        0.0687
     31 O          18.2370    7.0520   11.4350 O.3     1  LIG1       -0.2839
     32 C          19.3270    7.3130   10.5450 C.3     1  LIG1        0.2131
     33 H          19.4210    8.3860   10.3100 H       1  LIG1        0.0103
     34 H          19.0240    6.8190    9.6070 H       1  LIG1        0.0070
     35 C          20.6770    6.7350   10.9910 C.3     1  LIG1       -0.1822
     36 H          21.4410    6.8950   10.2160 H       1  LIG1        0.0426
     37 H          21.0310    7.2030   11.9230 H       1  LIG1        0.0489
     38 H          20.5870    5.6520   11.1710 H       1  LIG1        0.0583
     39 O          13.1840    8.9890   10.9440 O.3     1  LIG1       -0.3349
     40 C          12.7570    9.8110    9.8590 C.3     1  LIG1        0.2851
     41 H          13.3900   10.7120    9.7880 H       1  LIG1       -0.0045
     42 H          12.8560    9.2680    8.9040 H       1  LIG1       -0.0034
     43 C          11.2970   10.2120   10.0830 C.3     1  LIG1       -0.2293
     44 H          10.9160   10.8490    9.2700 H       1  LIG1        0.0498
     45 H          10.6600    9.3140   10.1430 H       1  LIG1        0.0671
     46 H          11.1930   10.7650   11.0300 H       1  LIG1        0.0684
     47 C          17.6200    6.8060   14.1140 C.3     1  LIG1       -0.1276
     48 H          17.5200    6.6600   15.1990 H       1  LIG1        0.0662
     49 H          18.4740    6.1950   13.7790 H       1  LIG1        0.0682
     50 H          17.8470    7.8690   13.9490 H       1  LIG1        0.0886
     51 N          10.0000    1.2030   11.0730 N.pl3   1  LIG1       -0.8267
     52 H           9.1310    1.0630   11.2570 H       1  LIG1        0.3748
     53 H          10.3810    0.8010   10.3640 H       1  LIG1        0.3769
     54 N          10.1820    3.9600   14.7110 N.pl3   1  LIG1       -0.8030
     55 H          10.5820    4.5620   15.2480 H       1  LIG1        0.3472
     56 H           9.3440    3.6840   14.8900 H       1  LIG1        0.3358
@<TRIPOS>BOND
     1     1     2   ar
     2     2     3   ar
     3     3     4   ar
     4     4     5   ar
     5     5     6   ar
     6     6     1   ar
     7     6     7    1
     8     7     8    1
     9     7     9    1
    10     7    10    1
    11    10    11    1
    12    10    12    1
    13    10    13    1
    14    13    14    1
    15    13    15    1
    16    15    16    1
    17    15    17    1
    18    15     1    1
    19    13    18    1
    20    18    19    1
    21    18    20    1
    22    18    21    1
    23    21    22    1
    24    22    23   ar
    25    23    24    1
    26    23    25   ar
    27    25    26   ar
    28    26    27    1
    29    26    28   ar
    30    28    29    1
    31    28    30   ar
    32    30    22   ar
    33    30    31    1
    34    31    32    1
    35    32    33    1
    36    32    34    1
    37    32    35    1
    38    35    36    1
    39    35    37    1
    40    35    38    1
    41    25    39    1
    42    39    40    1
    43    40    41    1
    44    40    42    1
    45    40    43    1
    46    43    44    1
    47    43    45    1
    48    43    46    1
    49    21    47    1
    50    47    48    1
    51    47    49    1
    52    47    50    1
    53     4    51    1
    54    51    52    1
    55    51    53    1
    56     2    54    1
    57    54    55    1
    58    54    56    1
