@<TRIPOS>MOLECULE
1_122870
 55 57 0 0 0
SMALL
USER_CHARGES
****
From 3DB ct
@<TRIPOS>ATOM
      1 N          10.0850    2.6690   12.7770 N.ar    0  UNK0       -0.6609
      2 C          10.7380    1.9670   11.8620 C.ar    0  UNK0        0.8134
      3 N          12.0300    2.1130   11.5980 N.ar    0  UNK0       -0.6488
      4 C          12.7200    3.0130   12.3070 C.ar    0  UNK0        0.4443
      5 C          12.1740    3.8080   13.3270 C.ar    0  UNK0       -0.6110
      6 C          10.7820    3.5790   13.4850 C.ar    0  UNK0        0.8501
      7 N           9.9940    4.2720   14.3940 N.pl3   0  UNK0       -0.9293
      8 H          10.1460    4.0220   15.3680 H       0  UNK0        0.3423
      9 H           9.9960    5.2820   14.2770 H       0  UNK0        0.3532
     10 C          13.0530    4.7260   14.0440 C.ar    0  UNK0        0.1967
     11 C          14.3980    4.9020   13.6240 C.ar    0  UNK0       -0.0929
     12 C          14.8860    4.0630   12.6160 C.ar    0  UNK0       -0.0779
     13 H          15.9300    4.1220   12.3050 H       0  UNK0        0.1413
     14 C          14.0570    3.1400   11.9850 C.ar    0  UNK0       -0.1890
     15 H          14.4800    2.5130   11.2000 H       0  UNK0        0.1314
     16 C          15.3550    5.9040   14.2600 C.3     0  UNK0        0.2369
     17 H          15.8600    5.3960   15.0900 H       0  UNK0        0.0103
     18 H          14.8190    6.7740   14.6480 H       0  UNK0        0.0370
     19 N          16.3190    6.4070   13.2870 N.pl3   0  UNK0       -0.7468
     20 H          17.2400    5.9710   13.3020 H       0  UNK0        0.3486
     21 C          15.9870    7.1680   12.1840 C.ar    0  UNK0        0.3810
     22 C          16.9770    7.4410   11.2300 C.ar    0  UNK0       -0.3375
     23 H          17.9800    7.0330   11.3530 H       0  UNK0        0.1100
     24 C          16.7120    8.2340   10.1060 C.ar    0  UNK0       -0.0032
     25 H          17.5090    8.4150    9.3870 H       0  UNK0        0.1273
     26 C          15.4410    8.7800    9.9110 C.ar    0  UNK0       -0.1483
     27 C          14.4500    8.5400   10.8670 C.ar    0  UNK0       -0.0605
     28 H          13.4590    8.9780   10.7810 H       0  UNK0        0.1435
     29 C          14.7270    7.7440   11.9900 C.ar    0  UNK0       -0.2463
     30 H          13.9250    7.5910   12.7090 H       0  UNK0        0.1064
     31 C          15.0380    9.1920    8.7060 C.2     0  UNK0        0.5851
     32 N          13.8760    9.2150    7.9330 N.am    1  GLU1       -0.5365
     33 H          13.0080    8.9740    8.3740 H       1  GLU1        0.3116
     34 CA         13.6680    9.7480    6.7720 C.3     1  GLU1        0.0376
     35 HA         14.1010   10.7610    6.7440 H       1  GLU1        0.0516
     36 C          12.0670    9.8420    6.6200 C.2     1  GLU1        0.5249
     37 O          11.6420   10.6180    5.7560 O.co2   1  GLU1       -0.6769
     38 OXT        11.4120    9.1540    7.4150 O.co2   1  GLU1       -0.7107
     39 CB         14.2170    8.8600    5.6160 C.3     1  GLU1       -0.0498
     40 HB1        13.9330    7.8190    5.8640 H       1  GLU1        0.0346
     41 HB2        13.5680    9.1110    4.7520 H       1  GLU1        0.0428
     42 CG         15.6610    8.7540    5.0390 C.3     1  GLU1       -0.1454
     43 HG1        16.0230    9.7290    4.6810 H       1  GLU1        0.0096
     44 HG2        16.3450    8.4010    5.8260 H       1  GLU1        0.0000
     45 CD         15.6370    7.7060    3.8700 C.2     1  GLU1        0.6071
     46 OE1        14.7190    7.8220    3.0510 O.co2   1  GLU1       -0.7179
     47 OE2        16.5520    6.8750    3.8960 O.co2   1  GLU1       -0.7486
     48 O          16.0900    9.5300    8.2300 O.2     0  UNK0       -0.5061
     49 C          12.5380    5.4970   15.2380 C.3     0  UNK0       -0.1872
     50 H          11.9530    4.8500   15.8950 H       0  UNK0        0.0428
     51 H          11.9420    6.3540   14.9110 H       0  UNK0        0.0754
     52 H          13.3390    5.8580   15.8880 H       0  UNK0        0.0365
     53 N          10.0430    1.0430   11.1460 N.pl3   0  UNK0       -0.8650
     54 H          10.5150    0.4950   10.4430 H       0  UNK0        0.3834
     55 H           9.0580    0.9100   11.3240 H       0  UNK0        0.3798
@<TRIPOS>BOND
     1     1     2   ar
     2     2     3   ar
     3     3     4   ar
     4     4     5   ar
     5     5     6   ar
     6     6     1   ar
     7     6     7    1
     8     7     8    1
     9     7     9    1
    10     5    10   ar
    11    10    11   ar
    12    11    12   ar
    13    12    13    1
    14    12    14   ar
    15    14    15    1
    16    14     4   ar
    17    11    16    1
    18    16    17    1
    19    16    18    1
    20    16    19    1
    21    19    20    1
    22    19    21    1
    23    21    22   ar
    24    22    23    1
    25    22    24   ar
    26    24    25    1
    27    24    26   ar
    28    26    27   ar
    29    27    28    1
    30    27    29   ar
    31    29    30    1
    32    29    21   ar
    33    26    31    1
    34    31    32   am
    35    32    33    1
    36    32    34    1
    37    34    35    1
    38    34    36    1
    39    36    37   ar
    40    36    38   ar
    41    34    39    1
    42    39    40    1
    43    39    41    1
    44    39    42    1
    45    42    43    1
    46    42    44    1
    47    42    45    1
    48    45    46   ar
    49    45    47   ar
    50    31    48    2
    51    10    49    1
    52    49    50    1
    53    49    51    1
    54    49    52    1
    55     2    53    1
    56    53    54    1
    57    53    55    1
