@<TRIPOS>MOLECULE
1_233903
 37 39 0 0 0
SMALL
USER_CHARGES
****
From 3DB ct
@<TRIPOS>ATOM
      1 C          12.2000    3.8600   13.2730 C.ar    1  LIG1       -0.2981
      2 C          10.8450    3.4660   13.6300 C.ar    1  LIG1        0.6192
      3 N          10.1440    2.5940   12.8960 N.ar    1  LIG1       -0.6448
      4 C          10.6980    1.9790   11.8240 C.ar    1  LIG1        0.7493
      5 N          12.0400    2.1470   11.5440 N.ar    1  LIG1       -0.6647
      6 C          12.7710    3.0540   12.3160 C.ar    1  LIG1        0.6085
      7 N          14.0870    3.0620   11.9480 N.ar    1  LIG1       -0.4510
      8 C          14.8420    3.9790   12.6210 C.ar    1  LIG1        0.2059
      9 H          15.7750    3.9430   12.4450 H       1  LIG1        0.0893
     10 C          14.3310    4.9350   13.5230 C.ar    1  LIG1        0.0718
     11 N          12.9740    4.8700   13.8600 N.ar    1  LIG1       -0.2198
     12 C          15.2830    5.9410   14.2710 C.3     1  LIG1       -0.0526
     13 H          14.7820    6.6920   14.5650 H       1  LIG1        0.0874
     14 H          15.6790    5.5090   15.0190 H       1  LIG1        0.0827
     15 N          16.3690    6.3880   13.3050 N.pl3   1  LIG1       -0.4770
     16 H          17.2320    6.1730   13.4490 H       1  LIG1        0.3021
     17 C          16.0360    7.0980   12.2490 C.ar    1  LIG1        0.2828
     18 C          14.7390    7.6590   12.0820 C.ar    1  LIG1       -0.1827
     19 H          13.9100    7.4950   12.7940 H       1  LIG1        0.1058
     20 C          14.4550    8.4760   10.9900 C.ar    1  LIG1       -0.0576
     21 H          13.4480    8.9260   10.8660 H       1  LIG1        0.1078
     22 C          15.4170    8.7250   10.0190 C.ar    1  LIG1       -0.1955
     23 C          16.6720    8.2010   10.0950 C.ar    1  LIG1        0.0132
     24 H          17.3870    8.3670    9.2780 H       1  LIG1        0.1218
     25 C          17.0030    7.4330   11.2800 C.ar    1  LIG1       -0.3039
     26 H          18.0420    7.0620   11.3100 H       1  LIG1        0.1270
     27 C          14.9540    9.6510    8.9170 C.2     1  LIG1        0.6559
     28 O          15.8490    9.8450    7.8620 O.2     1  LIG1       -0.4773
     29 N          13.8160   10.0970    8.9550 N.am    1  LIG1       -0.8344
     30 H          13.2670    9.8720    9.6320 H       1  LIG1        0.3498
     31 H          13.5270   10.6490    8.3060 H       1  LIG1        0.3366
     32 N          10.0000    1.2030   11.0730 N.pl3   1  LIG1       -0.7533
     33 H           9.1310    1.0630   11.2570 H       1  LIG1        0.3590
     34 H          10.3810    0.8010   10.3640 H       1  LIG1        0.3691
     35 N          10.1820    3.9600   14.7110 N.pl3   1  LIG1       -0.7251
     36 H          10.5820    4.5620   15.2480 H       1  LIG1        0.3440
     37 H           9.3440    3.6840   14.8900 H       1  LIG1        0.3490
@<TRIPOS>BOND
     1     1     2   ar
     2     2     3   ar
     3     3     4   ar
     4     4     5   ar
     5     5     6   ar
     6     6     1   ar
     7     6     7   ar
     8     7     8   ar
     9     8     9    1
    10     8    10   ar
    11    10    11   ar
    12    11     1   ar
    13    10    12    1
    14    12    13    1
    15    12    14    1
    16    12    15    1
    17    15    16    1
    18    15    17    1
    19    17    18   ar
    20    18    19    1
    21    18    20   ar
    22    20    21    1
    23    20    22   ar
    24    22    23   ar
    25    23    24    1
    26    23    25   ar
    27    25    26    1
    28    25    17   ar
    29    22    27    1
    30    27    28    2
    31    27    29   am
    32    29    30    1
    33    29    31    1
    34     4    32    1
    35    32    33    1
    36    32    34    1
    37     2    35    1
    38    35    36    1
    39    35    37    1
