@<TRIPOS>MOLECULE
1_235777
 39 42 0 0 0
SMALL
USER_CHARGES
****
From 3DB ct
@<TRIPOS>ATOM
      1 N          10.1730    2.6450   12.8890 N.ar    1  LIG1       -0.6559
      2 C          10.7700    1.9910   11.8960 C.ar    1  LIG1        0.7514
      3 N          12.0380    2.1620   11.5380 N.ar    1  LIG1       -0.6612
      4 C          12.7600    3.0430   12.2220 C.ar    1  LIG1        0.5939
      5 C          12.2560    3.8000   13.2880 C.ar    1  LIG1       -0.3028
      6 C          10.9140    3.5450   13.5600 C.ar    1  LIG1        0.6464
      7 N          10.2710    4.1750   14.6190 N.pl3   1  LIG1       -0.7506
      8 H          10.5910    5.1050   14.8750 H       1  LIG1        0.3547
      9 H           9.2840    3.9760   14.7410 H       1  LIG1        0.3552
     10 N          13.0220    4.7060   13.9770 N.ar    1  LIG1       -0.2459
     11 C          14.3160    4.8400   13.5810 C.ar    1  LIG1        0.1369
     12 C          14.8000    4.0860   12.5270 C.ar    1  LIG1        0.2003
     13 H          15.8300    4.1780   12.1910 H       1  LIG1        0.0850
     14 N          14.0360    3.1920   11.8450 N.ar    1  LIG1       -0.4462
     15 C          15.2300    5.8210   14.2940 C.3     1  LIG1       -0.1321
     16 H          15.7170    5.2960   15.1240 H       1  LIG1        0.0929
     17 H          14.6170    6.6400   14.6880 H       1  LIG1        0.0999
     18 N          16.2400    6.3530   13.3830 N.pl3   1  LIG1       -0.4249
     19 H          17.1920    6.0990   13.6390 H       1  LIG1        0.2989
     20 C          15.9890    7.1290   12.2630 C.ar    1  LIG1        0.2001
     21 C          14.7120    7.6740   12.0430 C.ar    1  LIG1       -0.2154
     22 H          13.8980    7.4980   12.7430 H       1  LIG1        0.1245
     23 C          14.4330    8.4600   10.9250 C.ar    1  LIG1       -0.0485
     24 H          13.4340    8.8670   10.7830 H       1  LIG1        0.1099
     25 C          15.4310    8.7210    9.9960 C.ar    1  LIG1       -0.2921
     26 H          15.1910    9.3370    9.1300 H       1  LIG1        0.1365
     27 C          16.7190    8.2020   10.1690 C.ar    1  LIG1        0.2335
     28 C          17.0180    7.3990   11.3040 C.ar    1  LIG1       -0.1296
     29 C          18.3450    6.9100   11.4080 C.ar    1  LIG1       -0.0821
     30 H          18.6480    6.2890   12.2480 H       1  LIG1        0.0811
     31 C          19.3210    7.1980   10.4480 C.ar    1  LIG1       -0.1390
     32 H          20.3290    6.8040   10.5640 H       1  LIG1        0.1096
     33 C          19.0030    7.9840    9.3510 C.ar    1  LIG1       -0.0522
     34 H          19.7590    8.2110    8.6010 H       1  LIG1        0.0990
     35 C          17.7100    8.4830    9.2130 C.ar    1  LIG1       -0.2296
     36 H          17.4800    9.0990    8.3430 H       1  LIG1        0.1269
     37 N          10.0310    1.0860   11.2010 N.pl3   1  LIG1       -0.7551
     38 H          10.4500    0.5700   10.4410 H       1  LIG1        0.3684
     39 H           9.0640    0.9330   11.4490 H       1  LIG1        0.3583
@<TRIPOS>BOND
     1     1     2   ar
     2     2     3   ar
     3     3     4   ar
     4     4     5   ar
     5     5     6   ar
     6     6     1   ar
     7     6     7    1
     8     7     8    1
     9     7     9    1
    10     5    10   ar
    11    10    11   ar
    12    11    12   ar
    13    12    13    1
    14    12    14   ar
    15    14     4   ar
    16    11    15    1
    17    15    16    1
    18    15    17    1
    19    15    18    1
    20    18    19    1
    21    18    20    1
    22    20    21   ar
    23    21    22    1
    24    21    23   ar
    25    23    24    1
    26    23    25   ar
    27    25    26    1
    28    25    27   ar
    29    27    28   ar
    30    28    20   ar
    31    28    29   ar
    32    29    30    1
    33    29    31   ar
    34    31    32    1
    35    31    33   ar
    36    33    34    1
    37    33    35   ar
    38    35    36    1
    39    35    27   ar
    40     2    37    1
    41    37    38    1
    42    37    39    1
