@<TRIPOS>MOLECULE
1_232965
 32 34 0 0 0
SMALL
USER_CHARGES
****
From 3DB ct
@<TRIPOS>ATOM
      1 N          10.1480    2.5940   12.8690 N.ar    1  LIG1       -0.6324
      2 C          10.7710    1.9560   11.8820 C.ar    1  LIG1        0.7441
      3 N          12.0410    2.1540   11.5430 N.ar    1  LIG1       -0.6705
      4 C          12.7320    3.0540   12.2350 C.ar    1  LIG1        0.6274
      5 C          12.1980    3.7920   13.2990 C.ar    1  LIG1       -0.2810
      6 C          10.8670    3.4890   13.5690 C.ar    1  LIG1        0.5821
      7 N          10.1720    4.1700   14.5610 N.pl3   1  LIG1       -0.7088
      8 H          10.7050    4.5080   15.3570 H       1  LIG1        0.3426
      9 H           9.2160    3.8780   14.7360 H       1  LIG1        0.3467
     10 N          12.9350    4.7130   14.0020 N.ar    1  LIG1       -0.2161
     11 C          14.2230    4.8880   13.6200 C.ar    1  LIG1        0.0878
     12 C          14.7370    4.1540   12.5640 C.ar    1  LIG1        0.1786
     13 H          15.7660    4.2770   12.2370 H       1  LIG1        0.1086
     14 N          14.0060    3.2400   11.8710 N.ar    1  LIG1       -0.4561
     15 C          15.0720    5.8870   14.3630 C.3     1  LIG1       -0.2542
     16 H          15.2300    5.5340   15.3880 H       1  LIG1        0.1275
     17 H          14.5340    6.8400   14.4150 H       1  LIG1        0.1085
     18 S          16.6850    6.1580   13.5340 S.3     1  LIG1       -0.0257
     19 C          16.1860    7.1690   12.1490 C.ar    1  LIG1       -0.0767
     20 C          14.8640    7.6300   12.1020 C.ar    1  LIG1       -0.0445
     21 H          14.1620    7.3820   12.8970 H       1  LIG1        0.0988
     22 C          14.4250    8.4200   11.0380 C.ar    1  LIG1       -0.1423
     23 H          13.3970    8.7790   11.0140 H       1  LIG1        0.1066
     24 C          15.3010    8.7500   10.0060 C.ar    1  LIG1       -0.0519
     25 H          14.9600    9.3670    9.1770 H       1  LIG1        0.0959
     26 C          16.6130    8.2810   10.0340 C.ar    1  LIG1       -0.1432
     27 H          17.2970    8.5310    9.2250 H       1  LIG1        0.1109
     28 C          17.0530    7.4890   11.0990 C.ar    1  LIG1       -0.0388
     29 H          18.0770    7.1220   11.0810 H       1  LIG1        0.1015
     30 N          10.0590    1.0420   11.1690 N.pl3   1  LIG1       -0.7518
     31 H          10.5020    0.5400   10.4140 H       1  LIG1        0.3705
     32 H           9.0910    0.8730   11.3990 H       1  LIG1        0.3560
@<TRIPOS>BOND
     1     1     2   ar
     2     2     3   ar
     3     3     4   ar
     4     4     5   ar
     5     5     6   ar
     6     6     1   ar
     7     6     7    1
     8     7     8    1
     9     7     9    1
    10     5    10   ar
    11    10    11   ar
    12    11    12   ar
    13    12    13    1
    14    12    14   ar
    15    14     4   ar
    16    11    15    1
    17    15    16    1
    18    15    17    1
    19    15    18    1
    20    18    19    1
    21    19    20   ar
    22    20    21    1
    23    20    22   ar
    24    22    23    1
    25    22    24   ar
    26    24    25    1
    27    24    26   ar
    28    26    27    1
    29    26    28   ar
    30    28    29    1
    31    28    19   ar
    32     2    30    1
    33    30    31    1
    34    30    32    1
