@<TRIPOS>MOLECULE
1_98535
 47 49 0 0 0
SMALL
USER_CHARGES
****
From 3DB ct
@<TRIPOS>ATOM
      1 C          12.2000    3.8600   13.2730 C.ar    0  UNK0       -0.2906
      2 C          10.8450    3.4660   13.6300 C.ar    0  UNK0        0.6603
      3 N          10.1440    2.5940   12.8960 N.ar    0  UNK0       -0.6602
      4 C          10.6980    1.9790   11.8240 C.ar    0  UNK0        0.7511
      5 N          12.0400    2.1470   11.5440 N.ar    0  UNK0       -0.6632
      6 C          12.7710    3.0540   12.3160 C.ar    0  UNK0        0.5837
      7 N          14.0870    3.0620   11.9480 N.ar    0  UNK0       -0.4455
      8 C          14.8420    3.9790   12.6210 C.ar    0  UNK0        0.2063
      9 H          15.7750    3.9430   12.4450 H       0  UNK0        0.0855
     10 C          14.3310    4.9350   13.5230 C.ar    0  UNK0        0.1373
     11 N          12.9740    4.8700   13.8600 N.ar    0  UNK0       -0.2538
     12 C          15.2830    5.9410   14.2710 C.3     0  UNK0       -0.0756
     13 H          14.7820    6.6920   14.5650 H       0  UNK0        0.0889
     14 H          15.6790    5.5090   15.0190 H       0  UNK0        0.0616
     15 N          16.3690    6.3880   13.3050 N.pl3   0  UNK0       -0.4596
     16 H          17.2320    6.1730   13.4490 H       0  UNK0        0.2811
     17 C          16.0360    7.0980   12.2490 C.ar    0  UNK0        0.2448
     18 C          14.7390    7.6590   12.0820 C.ar    0  UNK0       -0.2399
     19 H          13.9210    7.5220   12.8030 H       0  UNK0        0.1142
     20 C          14.4550    8.4760   10.9900 C.ar    0  UNK0       -0.0113
     21 H          13.4480    8.9260   10.8660 H       0  UNK0        0.1289
     22 C          15.4170    8.7250   10.0190 C.ar    0  UNK0       -0.2021
     23 C          16.6720    8.2010   10.0950 C.ar    0  UNK0        0.0592
     24 H          17.3870    8.3670    9.2780 H       0  UNK0        0.1135
     25 C          17.0030    7.4330   11.2800 C.ar    0  UNK0       -0.3540
     26 H          18.0460    7.1110   11.4110 H       0  UNK0        0.1093
     27 C          15.0380    9.1920    8.7060 C.2     0  UNK0        0.6047
     28 N          13.8760    9.2150    7.9330 N.am    1  ASP1       -0.5225
     29 H          13.0080    8.9740    8.3740 H       1  ASP1        0.3003
     30 CA         13.6680    9.7480    6.7720 C.3     1  ASP1        0.1106
     31 HA         14.1010   10.7610    6.7440 H       1  ASP1        0.0504
     32 C          12.0670    9.8420    6.6200 C.2     1  ASP1        0.5115
     33 O          11.6420   10.6180    5.7560 O.co2   1  ASP1       -0.6860
     34 OXT        11.4120    9.1540    7.4150 O.co2   1  ASP1       -0.7170
     35 CB         14.4180    8.9050    5.7280 C.3     1  ASP1       -0.1856
     36 HB1        14.4660    7.8630    6.0950 H       1  ASP1        0.0221
     37 HB2        13.7870    8.8450    4.8230 H       1  ASP1        0.0339
     38 CG         15.8400    9.2550    5.1670 C.2     1  ASP1        0.5845
     39 OD1        16.3250    8.3160    4.5160 O.co2   1  ASP1       -0.7418
     40 OD2        16.3080   10.3810    5.3490 O.co2   1  ASP1       -0.7128
     41 O          16.0900    9.5300    8.2300 O.2     0  UNK0       -0.5074
     42 N          10.0000    1.2030   11.0730 N.pl3   0  UNK0       -0.7835
     43 H           9.1310    1.0630   11.2570 H       0  UNK0        0.3576
     44 H          10.3810    0.8010   10.3640 H       0  UNK0        0.3694
     45 N          10.1820    3.9600   14.7110 N.pl3   0  UNK0       -0.7710
     46 H          10.5820    4.5620   15.2480 H       0  UNK0        0.3642
     47 H           9.3440    3.6840   14.8900 H       0  UNK0        0.3484
@<TRIPOS>BOND
     1     1     2   ar
     2     2     3   ar
     3     3     4   ar
     4     4     5   ar
     5     5     6   ar
     6     6     1   ar
     7     6     7   ar
     8     7     8   ar
     9     8     9    1
    10     8    10   ar
    11    10    11   ar
    12    11     1   ar
    13    10    12    1
    14    12    13    1
    15    12    14    1
    16    12    15    1
    17    15    16    1
    18    15    17    1
    19    17    18   ar
    20    18    19    1
    21    18    20   ar
    22    20    21    1
    23    20    22   ar
    24    22    23   ar
    25    23    24    1
    26    23    25   ar
    27    25    26    1
    28    25    17   ar
    29    22    27    1
    30    27    28   am
    31    28    29    1
    32    28    30    1
    33    30    31    1
    34    30    32    1
    35    32    33   ar
    36    32    34   ar
    37    30    35    1
    38    35    36    1
    39    35    37    1
    40    35    38    1
    41    38    39   ar
    42    38    40   ar
    43    27    41    2
    44     4    42    1
    45    42    43    1
    46    42    44    1
    47     2    45    1
    48    45    46    1
    49    45    47    1
