@<TRIPOS>MOLECULE
20_5c
 40 42 0 0 0
SMALL
USER_CHARGES
****
From 3DB ct
@<TRIPOS>ATOM
      1 C          12.4010    3.9580   12.9870 C.ar    1  LIG1       -0.6109
      2 C          11.0840    3.7940   13.5830 C.ar    1  LIG1        0.7647
      3 N          10.2390    2.8370   13.1810 N.ar    1  LIG1       -0.7151
      4 C          10.6060    1.9280   12.2470 C.ar    1  LIG1        0.8202
      5 N          11.9070    1.8940   11.7840 N.ar    1  LIG1       -0.6733
      6 C          12.7880    2.8900   12.2110 C.ar    1  LIG1        0.4524
      7 C          14.2250    2.6740   11.7630 C.3     1  LIG1       -0.0535
      8 H          14.4410    1.5930   11.7640 H       1  LIG1        0.0511
      9 H          14.3500    3.0120   10.7190 H       1  LIG1        0.0336
     10 C          15.1710    3.4520   12.6860 C.3     1  LIG1       -0.1211
     11 H          16.2010    3.3980   12.2950 H       1  LIG1        0.0274
     12 H          15.1910    3.0050   13.6960 H       1  LIG1        0.0565
     13 C          14.6660    4.9120   12.7410 C.3     1  LIG1        0.2347
     14 H          14.3610    5.1120   11.6990 H       1  LIG1        0.0139
     15 C          13.3340    5.0670   13.5180 C.3     1  LIG1        0.0044
     16 H          13.5070    4.8860   14.5950 H       1  LIG1        0.0486
     17 H          12.9560    5.9270   13.3740 H       1  LIG1        0.0168
     18 C          15.7500    5.9080   13.1780 C.3     1  LIG1       -0.4781
     19 H          15.5670    6.3650   14.1650 H       1  LIG1        0.1240
     20 H          16.7850    5.5610   13.3140 H       1  LIG1        0.1172
     21 C          15.6400    7.0030   12.0830 C.ar    1  LIG1        0.2320
     22 C          16.8000    7.4570   11.4800 C.ar    1  LIG1       -0.3264
     23 H          17.7710    6.9650   11.7120 H       1  LIG1        0.1661
     24 C          16.7110    8.5190   10.5940 C.ar    1  LIG1        0.1806
     25 C          15.4850    9.1280   10.3320 C.ar    1  LIG1       -0.2188
     26 H          15.4340    9.8480    9.7140 H       1  LIG1        0.1319
     27 C          14.3730    8.6590   10.9840 C.ar    1  LIG1       -0.0793
     28 H          13.3910    9.1410   10.7930 H       1  LIG1        0.1080
     29 C          14.4370    7.6050   11.8590 C.ar    1  LIG1       -0.1954
     30 H          13.6590    7.2930   12.3060 H       1  LIG1        0.1185
     31 C          17.9650    9.0240    9.8970 C.3     1  LIG1       -0.2209
     32 H          17.7450    9.3180    8.8600 H       1  LIG1        0.0590
     33 H          18.3770    9.9030   10.4180 H       1  LIG1        0.0638
     34 H          18.7440    8.2470    9.8730 H       1  LIG1        0.0637
     35 N           9.7670    1.0600   11.8040 N.pl3   1  LIG1       -0.8354
     36 H           8.9220    1.0520   12.1140 H       1  LIG1        0.3776
     37 H          10.0250    0.4620   11.1830 H       1  LIG1        0.3792
     38 N          10.6020    4.5990   14.5690 N.pl3   1  LIG1       -0.8097
     39 H          11.1060    5.2740   14.8850 H       1  LIG1        0.3520
     40 H           9.7800    4.4550   14.9060 H       1  LIG1        0.3402
@<TRIPOS>BOND
     1     1     2   ar
     2     2     3   ar
     3     3     4   ar
     4     4     5   ar
     5     5     6   ar
     6     6     1   ar
     7     6     7    1
     8     7     8    1
     9     7     9    1
    10     7    10    1
    11    10    11    1
    12    10    12    1
    13    10    13    1
    14    13    14    1
    15    13    15    1
    16    15    16    1
    17    15    17    1
    18    15     1    1
    19    13    18    1
    20    18    19    1
    21    18    20    1
    22    18    21    1
    23    21    22   ar
    24    22    23    1
    25    22    24   ar
    26    24    25   ar
    27    25    26    1
    28    25    27   ar
    29    27    28    1
    30    27    29   ar
    31    29    30    1
    32    29    21   ar
    33    24    31    1
    34    31    32    1
    35    31    33    1
    36    31    34    1
    37     4    35    1
    38    35    36    1
    39    35    37    1
    40     2    38    1
    41    38    39    1
    42    38    40    1
