@<TRIPOS>MOLECULE
21_12
 34 36 0 0 0
SMALL
USER_CHARGES
****
From 3DB ct
@<TRIPOS>ATOM
      1 N          10.1640    2.6310   12.9080 N.ar    1  LIG1       -0.6516
      2 C          10.7370    1.9570   11.9140 C.ar    1  LIG1        0.7786
      3 N          12.0030    2.1180   11.5300 N.ar    1  LIG1       -0.6302
      4 C          12.7410    3.0250   12.1940 C.ar    1  LIG1        0.2477
      5 C          12.2640    3.7990   13.2550 C.ar    1  LIG1       -0.0930
      6 C          10.9300    3.5250   13.5680 C.ar    1  LIG1        0.6057
      7 N          10.2790    4.2380   14.5690 N.pl3   1  LIG1       -0.7509
      8 H          10.8460    4.5840   15.3370 H       1  LIG1        0.3575
      9 H           9.3260    3.9660   14.7800 H       1  LIG1        0.3534
     10 N          13.0300    4.7180   13.9200 N.ar    1  LIG1       -0.3825
     11 C          14.3210    4.8870   13.5320 C.ar    1  LIG1        0.2712
     12 C          14.8640    4.1610   12.4830 C.ar    1  LIG1       -0.2434
     13 H          15.8930    4.3170   12.1700 H       1  LIG1        0.1466
     14 C          14.0610    3.2300   11.8240 C.ar    1  LIG1       -0.0608
     15 H          14.4820    2.6560   11.0000 H       1  LIG1        0.1216
     16 C          15.1570    5.9310   14.2520 C.3     1  LIG1        0.0368
     17 H          15.4640    5.5260   15.2210 H       1  LIG1        0.0769
     18 H          14.5310    6.8080   14.4560 H       1  LIG1        0.0642
     19 N          16.2910    6.3310   13.4150 N.pl3   1  LIG1       -0.6839
     20 H          16.9850    5.5900   13.3110 H       1  LIG1        0.3332
     21 C          16.0300    7.0770   12.2630 C.ar    1  LIG1        0.6699
     22 C          14.7480    7.6320   12.1120 C.ar    1  LIG1       -0.3389
     23 H          13.9800    7.4420   12.8610 H       1  LIG1        0.1432
     24 C          14.4310    8.4450   11.0200 C.ar    1  LIG1        0.0207
     25 H          13.4300    8.8640   10.9290 H       1  LIG1        0.1009
     26 C          15.3930    8.7240   10.0550 C.ar    1  LIG1       -0.2779
     27 H          15.1480    9.3560    9.2040 H       1  LIG1        0.1258
     28 C          16.6720    8.1850   10.1800 C.ar    1  LIG1        0.2275
     29 H          17.4160    8.3970    9.4150 H       1  LIG1        0.0541
     30 C          16.9910    7.3700   11.2740 C.ar    1  LIG1       -0.6281
     31 CL         18.5800    6.6790   11.3090 Cl      1  LIG1        0.0680
     32 N           9.9840    1.0460   11.2430 N.pl3   1  LIG1       -0.8094
     33 H          10.3910    0.5220   10.4820 H       1  LIG1        0.3765
     34 H           9.0200    0.9010   11.5050 H       1  LIG1        0.3707
@<TRIPOS>BOND
     1     1     2   ar
     2     2     3   ar
     3     3     4   ar
     4     4     5   ar
     5     5     6   ar
     6     6     1   ar
     7     6     7    1
     8     7     8    1
     9     7     9    1
    10     5    10   ar
    11    10    11   ar
    12    11    12   ar
    13    12    13    1
    14    12    14   ar
    15    14    15    1
    16    14     4   ar
    17    11    16    1
    18    16    17    1
    19    16    18    1
    20    16    19    1
    21    19    20    1
    22    19    21    1
    23    21    22   ar
    24    22    23    1
    25    22    24   ar
    26    24    25    1
    27    24    26   ar
    28    26    27    1
    29    26    28   ar
    30    28    29    1
    31    28    30   ar
    32    30    21   ar
    33    30    31    1
    34     2    32    1
    35    32    33    1
    36    32    34    1
