@<TRIPOS>MOLECULE
21_11
 41 43 0 0 0
SMALL
USER_CHARGES
****
From 3DB ct
@<TRIPOS>ATOM
      1 N          10.1560    2.6480   12.9210 N.ar    1  LIG1       -0.6703
      2 C          10.7080    1.9670   11.9180 C.ar    1  LIG1        0.7980
      3 N          11.9730    2.1050   11.5240 N.ar    1  LIG1       -0.6387
      4 C          12.7350    2.9940   12.1870 C.ar    1  LIG1        0.2563
      5 C          12.2830    3.7700   13.2550 C.ar    1  LIG1       -0.1451
      6 C          10.9460    3.5230   13.5780 C.ar    1  LIG1        0.6459
      7 N          10.3180    4.2470   14.5860 N.pl3   1  LIG1       -0.7656
      8 H          10.9010    4.5850   15.3470 H       1  LIG1        0.3600
      9 H           9.3610    3.9950   14.8060 H       1  LIG1        0.3577
     10 N          13.0740    4.6690   13.9180 N.ar    1  LIG1       -0.3695
     11 C          14.3660    4.8180   13.5220 C.ar    1  LIG1        0.3599
     12 C          14.8840    4.0850   12.4640 C.ar    1  LIG1       -0.2894
     13 H          15.9160    4.2070   12.1460 H       1  LIG1        0.1547
     14 C          14.0560    3.1750   11.8070 C.ar    1  LIG1       -0.0538
     15 H          14.4590    2.5960   10.9780 H       1  LIG1        0.1214
     16 C          15.2410    5.8250   14.2620 C.3     1  LIG1       -0.1874
     17 H          15.6780    5.2630   15.0970 H       1  LIG1        0.1042
     18 H          14.6270    6.6240   14.6950 H       1  LIG1        0.0898
     19 N          16.2960    6.4340   13.4220 N.pl3   1  LIG1       -0.1514
     20 C          15.9800    7.1880   12.2990 C.ar    1  LIG1        0.0756
     21 C          16.9180    7.4620   11.2930 C.ar    1  LIG1       -0.1898
     22 H          17.9450    7.1110   11.3700 H       1  LIG1        0.1193
     23 C          16.5910    8.2260   10.1620 C.ar    1  LIG1       -0.1964
     24 H          17.3570    8.4160    9.4110 H       1  LIG1        0.1194
     25 C          15.3100    8.7440    9.9980 C.ar    1  LIG1        0.2997
     26 C          14.3590    8.4900   10.9800 C.ar    1  LIG1       -0.2749
     27 H          13.3410    8.8640   10.9080 H       1  LIG1        0.1499
     28 C          14.6960    7.7250   12.1090 C.ar    1  LIG1       -0.0729
     29 H          13.9060    7.5430   12.8370 H       1  LIG1        0.1080
     30 O          15.1190    9.4690    8.8560 O.3     1  LIG1       -0.3120
     31 C          16.2500    9.6270    8.0010 C.3     1  LIG1        0.0529
     32 H          15.9350   10.2250    7.1400 H       1  LIG1        0.0591
     33 H          16.5970    8.6580    7.6260 H       1  LIG1        0.0264
     34 H          17.0540   10.1690    8.5080 H       1  LIG1        0.0253
     35 C          17.6960    6.1240   13.7200 C.3     1  LIG1       -0.0248
     36 H          18.1680    6.9590   14.2490 H       1  LIG1        0.0380
     37 H          18.2620    5.9130   12.8050 H       1  LIG1        0.0371
     38 H          17.7890    5.2290   14.3430 H       1  LIG1        0.0535
     39 N           9.9300    1.0750   11.2490 N.pl3   1  LIG1       -0.8223
     40 H          10.3190    0.5480   10.4810 H       1  LIG1        0.3782
     41 H           8.9660    0.9510   11.5190 H       1  LIG1        0.3740
@<TRIPOS>BOND
     1     1     2   ar
     2     2     3   ar
     3     3     4   ar
     4     4     5   ar
     5     5     6   ar
     6     6     1   ar
     7     6     7    1
     8     7     8    1
     9     7     9    1
    10     5    10   ar
    11    10    11   ar
    12    11    12   ar
    13    12    13    1
    14    12    14   ar
    15    14    15    1
    16    14     4   ar
    17    11    16    1
    18    16    17    1
    19    16    18    1
    20    16    19    1
    21    19    20    1
    22    20    21   ar
    23    21    22    1
    24    21    23   ar
    25    23    24    1
    26    23    25   ar
    27    25    26   ar
    28    26    27    1
    29    26    28   ar
    30    28    29    1
    31    28    20   ar
    32    25    30    1
    33    30    31    1
    34    31    32    1
    35    31    33    1
    36    31    34    1
    37    19    35    1
    38    35    36    1
    39    35    37    1
    40    35    38    1
    41     2    39    1
    42    39    40    1
    43    39    41    1
