@<TRIPOS>MOLECULE
21_15
 42 44 0 0 0
SMALL
USER_CHARGES
****
From 3DB ct
@<TRIPOS>ATOM
      1 N          10.1590    2.6400   12.9090 N.ar    1  LIG1       -0.6672
      2 C          10.7250    1.9670   11.9090 C.ar    1  LIG1        0.7911
      3 N          11.9920    2.1170   11.5250 N.ar    1  LIG1       -0.6356
      4 C          12.7400    3.0120   12.1950 C.ar    1  LIG1        0.2590
      5 C          12.2730    3.7820   13.2630 C.ar    1  LIG1       -0.1393
      6 C          10.9350    3.5210   13.5740 C.ar    1  LIG1        0.6401
      7 N          10.2920    4.2350   14.5790 N.pl3   1  LIG1       -0.7625
      8 H          10.8630    4.5740   15.3480 H       1  LIG1        0.3593
      9 H           9.3360    3.9740   14.7890 H       1  LIG1        0.3562
     10 N          13.0500    4.6880   13.9340 N.ar    1  LIG1       -0.3738
     11 C          14.3420    4.8460   13.5470 C.ar    1  LIG1        0.3351
     12 C          14.8750    4.1240   12.4890 C.ar    1  LIG1       -0.2539
     13 H          15.9050    4.2700   12.1750 H       1  LIG1        0.1471
     14 C          14.0610    3.2060   11.8250 C.ar    1  LIG1       -0.0712
     15 H          14.4750    2.6360   10.9950 H       1  LIG1        0.1236
     16 C          15.1910    5.8810   14.2710 C.3     1  LIG1       -0.1128
     17 H          15.6200    5.4080   15.1620 H       1  LIG1        0.0854
     18 H          14.5350    6.6990   14.5910 H       1  LIG1        0.0877
     19 N          16.2360    6.3890   13.3920 N.pl3   1  LIG1       -0.3324
     20 H          17.1740    6.0340   13.5770 H       1  LIG1        0.2575
     21 C          16.0530    7.1590   12.2550 C.ar    1  LIG1       -0.0705
     22 C          14.7650    7.6870   12.0570 C.ar    1  LIG1        0.0439
     23 H          13.9790    7.4950   12.7870 H       1  LIG1        0.1024
     24 C          14.4480    8.4600   10.9380 C.ar    1  LIG1       -0.3496
     25 H          13.4380    8.8510   10.8280 H       1  LIG1        0.1604
     26 C          15.4130    8.7290    9.9750 C.ar    1  LIG1        0.2962
     27 C          16.6980    8.2110   10.1390 C.ar    1  LIG1       -0.2838
     28 H          17.4520    8.4210    9.3890 H       1  LIG1        0.1301
     29 C          17.0270    7.4270   11.2630 C.ar    1  LIG1        0.1744
     30 O          18.2820    6.9030   11.4640 O.3     1  LIG1       -0.2440
     31 C          19.3040    7.2170   10.5230 C.3     1  LIG1       -0.0165
     32 H          20.2060    6.6720   10.8180 H       1  LIG1        0.0676
     33 H          19.5410    8.2860   10.5430 H       1  LIG1        0.0479
     34 H          19.0300    6.8850    9.5160 H       1  LIG1        0.0467
     35 O          14.9790    9.4980    8.9310 O.3     1  LIG1       -0.2870
     36 C          15.9240    9.7880    7.9020 C.3     1  LIG1        0.0347
     37 H          15.4210   10.4080    7.1540 H       1  LIG1        0.0612
     38 H          16.2570    8.8700    7.4050 H       1  LIG1        0.0319
     39 H          16.7710   10.3590    8.2950 H       1  LIG1        0.0299
     40 N           9.9610    1.0690   11.2320 N.pl3   1  LIG1       -0.8189
     41 H          10.3620    0.5450   10.4680 H       1  LIG1        0.3769
     42 H           8.9960    0.9320   11.4960 H       1  LIG1        0.3730
@<TRIPOS>BOND
     1     1     2   ar
     2     2     3   ar
     3     3     4   ar
     4     4     5   ar
     5     5     6   ar
     6     6     1   ar
     7     6     7    1
     8     7     8    1
     9     7     9    1
    10     5    10   ar
    11    10    11   ar
    12    11    12   ar
    13    12    13    1
    14    12    14   ar
    15    14    15    1
    16    14     4   ar
    17    11    16    1
    18    16    17    1
    19    16    18    1
    20    16    19    1
    21    19    20    1
    22    19    21    1
    23    21    22   ar
    24    22    23    1
    25    22    24   ar
    26    24    25    1
    27    24    26   ar
    28    26    27   ar
    29    27    28    1
    30    27    29   ar
    31    29    21   ar
    32    29    30    1
    33    30    31    1
    34    31    32    1
    35    31    33    1
    36    31    34    1
    37    26    35    1
    38    35    36    1
    39    36    37    1
    40    36    38    1
    41    36    39    1
    42     2    40    1
    43    40    41    1
    44    40    42    1
