@<TRIPOS>MOLECULE
21_19
 42 44 0 0 0
SMALL
USER_CHARGES
****
From 3DB ct
@<TRIPOS>ATOM
      1 N          10.1580    2.6400   12.9110 N.ar    1  LIG1       -0.6669
      2 C          10.7220    1.9640   11.9120 C.ar    1  LIG1        0.7964
      3 N          11.9870    2.1150   11.5240 N.ar    1  LIG1       -0.6366
      4 C          12.7370    3.0110   12.1900 C.ar    1  LIG1        0.2529
      5 C          12.2710    3.7830   13.2570 C.ar    1  LIG1       -0.1304
      6 C          10.9350    3.5220   13.5730 C.ar    1  LIG1        0.6357
      7 N          10.2950    4.2370   14.5790 N.pl3   1  LIG1       -0.7592
      8 H          10.8690    4.5750   15.3470 H       1  LIG1        0.3584
      9 H           9.3400    3.9740   14.7930 H       1  LIG1        0.3561
     10 N          13.0510    4.6890   13.9270 N.ar    1  LIG1       -0.3754
     11 C          14.3420    4.8450   13.5400 C.ar    1  LIG1        0.3395
     12 C          14.8740    4.1200   12.4820 C.ar    1  LIG1       -0.2601
     13 H          15.9050    4.2620   12.1710 H       1  LIG1        0.1424
     14 C          14.0580    3.2040   11.8180 C.ar    1  LIG1       -0.0619
     15 H          14.4710    2.6310   10.9900 H       1  LIG1        0.1229
     16 C          15.1980    5.8630   14.2750 C.3     1  LIG1       -0.1140
     17 H          15.6400    5.3760   15.1530 H       1  LIG1        0.0820
     18 H          14.5530    6.6750   14.6300 H       1  LIG1        0.0940
     19 N          16.2370    6.3990   13.4030 N.pl3   1  LIG1       -0.4129
     20 H          17.1880    6.0820   13.5850 H       1  LIG1        0.2854
     21 C          16.0010    7.1660   12.2800 C.ar    1  LIG1        0.1797
     22 C          14.7250    7.7170   12.1000 C.ar    1  LIG1       -0.1255
     23 H          13.9490    7.5540   12.8470 H       1  LIG1        0.1172
     24 C          14.4160    8.4820   10.9750 C.ar    1  LIG1       -0.1918
     25 H          13.4220    8.9100   10.8670 H       1  LIG1        0.1446
     26 C          15.3860    8.6900    9.9990 C.ar    1  LIG1        0.1117
     27 C          16.6770    8.1680   10.1500 C.ar    1  LIG1        0.2256
     28 C          16.9670    7.4000   11.2870 C.ar    1  LIG1       -0.3711
     29 H          17.9580    6.9780   11.4140 H       1  LIG1        0.1341
     30 O          17.5620    8.4570    9.1430 O.3     1  LIG1       -0.2264
     31 C          18.8630    7.8790    9.2320 C.3     1  LIG1       -0.0556
     32 H          19.4390    8.2210    8.3670 H       1  LIG1        0.0719
     33 H          18.8110    6.7860    9.1870 H       1  LIG1        0.0612
     34 H          19.3840    8.2180   10.1330 H       1  LIG1        0.0626
     35 O          15.0810    9.4750    8.9150 O.3     1  LIG1       -0.2798
     36 C          16.2210    9.5850    8.0560 C.3     1  LIG1        0.0748
     37 H          15.9670   10.2830    7.2530 H       1  LIG1        0.0409
     38 H          16.4670    8.6190    7.6020 H       1  LIG1        0.0254
     39 H          17.0870    9.9860    8.5950 H       1  LIG1        0.0217
     40 N           9.9580    1.0600   11.2420 N.pl3   1  LIG1       -0.8217
     41 H          10.3590    0.5300   10.4830 H       1  LIG1        0.3783
     42 H           8.9960    0.9180   11.5130 H       1  LIG1        0.3741
@<TRIPOS>BOND
     1     1     2   ar
     2     2     3   ar
     3     3     4   ar
     4     4     5   ar
     5     5     6   ar
     6     6     1   ar
     7     6     7    1
     8     7     8    1
     9     7     9    1
    10     5    10   ar
    11    10    11   ar
    12    11    12   ar
    13    12    13    1
    14    12    14   ar
    15    14    15    1
    16    14     4   ar
    17    11    16    1
    18    16    17    1
    19    16    18    1
    20    16    19    1
    21    19    20    1
    22    19    21    1
    23    21    22   ar
    24    22    23    1
    25    22    24   ar
    26    24    25    1
    27    24    26   ar
    28    26    27   ar
    29    27    28   ar
    30    28    29    1
    31    28    21   ar
    32    27    30    1
    33    30    31    1
    34    31    32    1
    35    31    33    1
    36    31    34    1
    37    26    35    1
    38    35    36    1
    39    36    37    1
    40    36    38    1
    41    36    39    1
    42     2    40    1
    43    40    41    1
    44    40    42    1
