@<TRIPOS>MOLECULE
21_14
 34 36 0 0 0
SMALL
USER_CHARGES
****
From 3DB ct
@<TRIPOS>ATOM
      1 N          10.1570    2.6390   12.9090 N.ar    1  LIG1       -0.6578
      2 C          10.7220    1.9650   11.9090 C.ar    1  LIG1        0.7857
      3 N          11.9890    2.1160   11.5240 N.ar    1  LIG1       -0.6309
      4 C          12.7370    3.0110   12.1930 C.ar    1  LIG1        0.2431
      5 C          12.2700    3.7800   13.2610 C.ar    1  LIG1       -0.0990
      6 C          10.9330    3.5200   13.5730 C.ar    1  LIG1        0.6164
      7 N          10.2910    4.2350   14.5790 N.pl3   1  LIG1       -0.7533
      8 H          10.8630    4.5730   15.3480 H       1  LIG1        0.3572
      9 H           9.3350    3.9740   14.7890 H       1  LIG1        0.3545
     10 N          13.0480    4.6850   13.9340 N.ar    1  LIG1       -0.3891
     11 C          14.3400    4.8420   13.5470 C.ar    1  LIG1        0.2948
     12 C          14.8720    4.1210   12.4890 C.ar    1  LIG1       -0.2488
     13 H          15.9040    4.2660   12.1770 H       1  LIG1        0.1429
     14 C          14.0580    3.2060   11.8220 C.ar    1  LIG1       -0.0595
     15 H          14.4720    2.6360   10.9920 H       1  LIG1        0.1230
     16 C          15.1920    5.8640   14.2820 C.3     1  LIG1        0.0279
     17 H          15.6230    5.3850   15.1700 H       1  LIG1        0.0605
     18 H          14.5480    6.6840   14.6210 H       1  LIG1        0.0691
     19 N          16.2420    6.3860   13.4140 N.pl3   1  LIG1       -0.5899
     20 H          17.1840    6.0350   13.5820 H       1  LIG1        0.3356
     21 C          16.0160    7.1560   12.2910 C.ar    1  LIG1        0.2584
     22 C          14.7370    7.6970   12.0900 C.ar    1  LIG1       -0.1302
     23 H          13.9490    7.5200   12.8220 H       1  LIG1        0.1116
     24 C          14.4360    8.4670   10.9620 C.ar    1  LIG1       -0.1568
     25 H          13.4360    8.8770   10.8340 H       1  LIG1        0.1242
     26 C          15.4160    8.7060   10.0040 C.ar    1  LIG1        0.0655
     27 H          15.1820    9.3050    9.1270 H       1  LIG1        0.0580
     28 C          16.6880    8.1700   10.1830 C.ar    1  LIG1       -0.3135
     29 C          16.9860    7.3990   11.3120 C.ar    1  LIG1       -0.0668
     30 H          17.9890    6.9960   11.4130 H       1  LIG1        0.0700
     31 CL         17.9070    8.4570    9.0000 Cl      1  LIG1        0.0614
     32 N           9.9590    1.0640   11.2360 N.pl3   1  LIG1       -0.8140
     33 H          10.3610    0.5360   10.4750 H       1  LIG1        0.3772
     34 H           8.9960    0.9230   11.5040 H       1  LIG1        0.3727
@<TRIPOS>BOND
     1     1     2   ar
     2     2     3   ar
     3     3     4   ar
     4     4     5   ar
     5     5     6   ar
     6     6     1   ar
     7     6     7    1
     8     7     8    1
     9     7     9    1
    10     5    10   ar
    11    10    11   ar
    12    11    12   ar
    13    12    13    1
    14    12    14   ar
    15    14    15    1
    16    14     4   ar
    17    11    16    1
    18    16    17    1
    19    16    18    1
    20    16    19    1
    21    19    20    1
    22    19    21    1
    23    21    22   ar
    24    22    23    1
    25    22    24   ar
    26    24    25    1
    27    24    26   ar
    28    26    27    1
    29    26    28   ar
    30    28    29   ar
    31    29    30    1
    32    29    21   ar
    33    28    31    1
    34     2    32    1
    35    32    33    1
    36    32    34    1
