@<TRIPOS>MOLECULE
21_13
 37 39 0 0 0
SMALL
USER_CHARGES
****
From 3DB ct
@<TRIPOS>ATOM
      1 N          10.1590    2.6340   12.9160 N.ar    1  LIG1       -0.6678
      2 C          10.7240    1.9540   11.9200 C.ar    1  LIG1        0.7893
      3 N          11.9880    2.1080   11.5280 N.ar    1  LIG1       -0.6345
      4 C          12.7340    3.0140   12.1860 C.ar    1  LIG1        0.2571
      5 C          12.2670    3.7900   13.2480 C.ar    1  LIG1       -0.1405
      6 C          10.9330    3.5250   13.5690 C.ar    1  LIG1        0.6448
      7 N          10.2910    4.2470   14.5690 N.pl3   1  LIG1       -0.7719
      8 H          10.8660    4.5940   15.3320 H       1  LIG1        0.3624
      9 H           9.3370    3.9820   14.7870 H       1  LIG1        0.3584
     10 N          13.0430    4.7060   13.9070 N.ar    1  LIG1       -0.3811
     11 C          14.3320    4.8720   13.5120 C.ar    1  LIG1        0.3708
     12 C          14.8660    4.1390   12.4620 C.ar    1  LIG1       -0.2691
     13 H          15.8980    4.2730   12.1490 H       1  LIG1        0.1384
     14 C          14.0530    3.2120   11.8080 C.ar    1  LIG1       -0.0643
     15 H          14.4670    2.6330   10.9850 H       1  LIG1        0.1250
     16 C          15.1900    5.8840   14.2600 C.3     1  LIG1       -0.1996
     17 H          15.5630    5.3710   15.1570 H       1  LIG1        0.1183
     18 H          14.5740    6.7230   14.6060 H       1  LIG1        0.0880
     19 N          16.3190    6.3740   13.4440 N.pl3   1  LIG1       -0.2447
     20 C          16.0060    7.1320   12.3030 C.ar    1  LIG1        0.4835
     21 C          14.7290    7.7000   12.1440 C.ar    1  LIG1       -0.2954
     22 H          13.9620    7.5600   12.9030 H       1  LIG1        0.1293
     23 C          14.3990    8.4390   11.0020 C.ar    1  LIG1        0.0021
     24 H          13.4020    8.8650   10.9030 H       1  LIG1        0.1002
     25 C          15.3380    8.6240    9.9920 C.ar    1  LIG1       -0.2303
     26 H          15.0800    9.1990    9.1050 H       1  LIG1        0.1253
     27 C          16.6100    8.0720   10.1220 C.ar    1  LIG1        0.1553
     28 H          17.3410    8.2240    9.3310 H       1  LIG1        0.0553
     29 C          16.9420    7.3320   11.2640 C.ar    1  LIG1       -0.4777
     30 CL         18.5560    6.7090   11.3690 Cl      1  LIG1        0.0617
     31 C          17.4640    5.4790   13.2660 C.3     1  LIG1       -0.1525
     32 H          18.2940    5.9700   12.7460 H       1  LIG1        0.0812
     33 H          17.1740    4.5940   12.6890 H       1  LIG1        0.0739
     34 H          17.8520    5.1450   14.2330 H       1  LIG1        0.0759
     35 N           9.9630    1.0430   11.2570 N.pl3   1  LIG1       -0.8170
     36 H          10.3630    0.5120   10.4980 H       1  LIG1        0.3771
     37 H           9.0010    0.9010   11.5290 H       1  LIG1        0.3731
@<TRIPOS>BOND
     1     1     2   ar
     2     2     3   ar
     3     3     4   ar
     4     4     5   ar
     5     5     6   ar
     6     6     1   ar
     7     6     7    1
     8     7     8    1
     9     7     9    1
    10     5    10   ar
    11    10    11   ar
    12    11    12   ar
    13    12    13    1
    14    12    14   ar
    15    14    15    1
    16    14     4   ar
    17    11    16    1
    18    16    17    1
    19    16    18    1
    20    16    19    1
    21    19    20    1
    22    20    21   ar
    23    21    22    1
    24    21    23   ar
    25    23    24    1
    26    23    25   ar
    27    25    26    1
    28    25    27   ar
    29    27    28    1
    30    27    29   ar
    31    29    20   ar
    32    29    30    1
    33    19    31    1
    34    31    32    1
    35    31    33    1
    36    31    34    1
    37     2    35    1
    38    35    36    1
    39    35    37    1
