@<TRIPOS>MOLECULE
21_10
 38 40 0 0 0
SMALL
USER_CHARGES
****
From 3DB ct
@<TRIPOS>ATOM
      1 N          10.1560    2.6370   12.9080 N.ar    1  LIG1       -0.6636
      2 C          10.7220    1.9640   11.9080 C.ar    1  LIG1        0.7914
      3 N          11.9890    2.1160   11.5240 N.ar    1  LIG1       -0.6345
      4 C          12.7360    3.0110   12.1940 C.ar    1  LIG1        0.2471
      5 C          12.2680    3.7810   13.2610 C.ar    1  LIG1       -0.1171
      6 C          10.9310    3.5190   13.5730 C.ar    1  LIG1        0.6287
      7 N          10.2870    4.2320   14.5780 N.pl3   1  LIG1       -0.7598
      8 H          10.8580    4.5690   15.3480 H       1  LIG1        0.3588
      9 H           9.3310    3.9690   14.7880 H       1  LIG1        0.3564
     10 N          13.0440    4.6870   13.9330 N.ar    1  LIG1       -0.3798
     11 C          14.3360    4.8460   13.5480 C.ar    1  LIG1        0.3155
     12 C          14.8700    4.1240   12.4910 C.ar    1  LIG1       -0.2543
     13 H          15.9020    4.2690   12.1810 H       1  LIG1        0.1416
     14 C          14.0580    3.2060   11.8250 C.ar    1  LIG1       -0.0599
     15 H          14.4730    2.6350   10.9960 H       1  LIG1        0.1224
     16 C          15.1860    5.8710   14.2800 C.3     1  LIG1       -0.0527
     17 H          15.6130    5.3970   15.1720 H       1  LIG1        0.0728
     18 H          14.5410    6.6930   14.6120 H       1  LIG1        0.0755
     19 N          16.2400    6.3870   13.4130 N.pl3   1  LIG1       -0.4632
     20 H          17.1790    6.0300   13.5820 H       1  LIG1        0.2933
     21 C          16.0180    7.1560   12.2900 C.ar    1  LIG1        0.1832
     22 C          14.7450    7.7000   12.0810 C.ar    1  LIG1       -0.0703
     23 H          13.9510    7.5290   12.8060 H       1  LIG1        0.1129
     24 C          14.4580    8.4700   10.9470 C.ar    1  LIG1       -0.2799
     25 H          13.4570    8.8790   10.8210 H       1  LIG1        0.1511
     26 C          15.4390    8.7100    9.9870 C.ar    1  LIG1        0.2727
     27 C          16.7080    8.1690   10.1740 C.ar    1  LIG1       -0.1534
     28 H          17.5110    8.3210    9.4570 H       1  LIG1        0.1166
     29 C          16.9880    7.3980   11.3130 C.ar    1  LIG1       -0.2694
     30 H          17.9940    6.9950   11.4130 H       1  LIG1        0.1302
     31 O          15.0370    9.4750    8.9280 O.3     1  LIG1       -0.3006
     32 C          16.0140    9.7440    7.9230 C.3     1  LIG1        0.0402
     33 H          15.5400   10.3630    7.1550 H       1  LIG1        0.0613
     34 H          16.3520    8.8180    7.4450 H       1  LIG1        0.0278
     35 H          16.8570   10.3090    8.3350 H       1  LIG1        0.0272
     36 N           9.9600    1.0630   11.2330 N.pl3   1  LIG1       -0.8184
     37 H          10.3610    0.5390   10.4700 H       1  LIG1        0.3775
     38 H           8.9960    0.9240   11.4980 H       1  LIG1        0.3728
@<TRIPOS>BOND
     1     1     2   ar
     2     2     3   ar
     3     3     4   ar
     4     4     5   ar
     5     5     6   ar
     6     6     1   ar
     7     6     7    1
     8     7     8    1
     9     7     9    1
    10     5    10   ar
    11    10    11   ar
    12    11    12   ar
    13    12    13    1
    14    12    14   ar
    15    14    15    1
    16    14     4   ar
    17    11    16    1
    18    16    17    1
    19    16    18    1
    20    16    19    1
    21    19    20    1
    22    19    21    1
    23    21    22   ar
    24    22    23    1
    25    22    24   ar
    26    24    25    1
    27    24    26   ar
    28    26    27   ar
    29    27    28    1
    30    27    29   ar
    31    29    30    1
    32    29    21   ar
    33    26    31    1
    34    31    32    1
    35    32    33    1
    36    32    34    1
    37    32    35    1
    38     2    36    1
    39    36    37    1
    40    36    38    1
