@<TRIPOS>MOLECULE
21_22
 37 39 0 0 0
SMALL
USER_CHARGES
****
From 3DB ct
@<TRIPOS>ATOM
      1 N          10.1590    2.6330   12.9160 N.ar    1  LIG1       -0.6627
      2 C          10.7240    1.9530   11.9210 C.ar    1  LIG1        0.7837
      3 N          11.9880    2.1080   11.5280 N.ar    1  LIG1       -0.6337
      4 C          12.7340    3.0130   12.1860 C.ar    1  LIG1        0.2637
      5 C          12.2670    3.7900   13.2480 C.ar    1  LIG1       -0.1334
      6 C          10.9330    3.5250   13.5690 C.ar    1  LIG1        0.6380
      7 N          10.2920    4.2470   14.5690 N.pl3   1  LIG1       -0.7697
      8 H          10.8670    4.5960   15.3310 H       1  LIG1        0.3631
      9 H           9.3380    3.9830   14.7870 H       1  LIG1        0.3581
     10 N          13.0430    4.7060   13.9060 N.ar    1  LIG1       -0.3872
     11 C          14.3320    4.8720   13.5110 C.ar    1  LIG1        0.3592
     12 C          14.8660    4.1390   12.4610 C.ar    1  LIG1       -0.2762
     13 H          15.8980    4.2730   12.1490 H       1  LIG1        0.1435
     14 C          14.0530    3.2120   11.8080 C.ar    1  LIG1       -0.0656
     15 H          14.4670    2.6330   10.9850 H       1  LIG1        0.1252
     16 C          15.1890    5.8840   14.2590 C.3     1  LIG1       -0.1560
     17 H          15.5630    5.3710   15.1550 H       1  LIG1        0.1124
     18 H          14.5740    6.7240   14.6050 H       1  LIG1        0.0807
     19 N          16.3170    6.3750   13.4420 N.pl3   1  LIG1       -0.3094
     20 C          16.0060    7.1330   12.3020 C.ar    1  LIG1        0.6543
     21 C          14.7310    7.7020   12.1430 C.ar    1  LIG1       -0.4360
     22 H          13.9630    7.5630   12.9020 H       1  LIG1        0.1544
     23 C          14.4040    8.4410   11.0010 C.ar    1  LIG1        0.2933
     24 H          13.4070    8.8660   10.9060 H       1  LIG1        0.0484
     25 C          15.3500    8.6210    9.9960 C.ar    1  LIG1       -0.5960
     26 C          16.6200    8.0700   10.1200 C.ar    1  LIG1        0.4923
     27 H          17.3580    8.2160    9.3350 H       1  LIG1       -0.0109
     28 C          16.9450    7.3320   11.2620 C.ar    1  LIG1       -0.6496
     29 CL         18.5580    6.7040   11.3730 Cl      1  LIG1        0.0919
     30 CL         14.9440    9.5310    8.5920 Cl      1  LIG1        0.0971
     31 C          17.4650    5.4810   13.2680 C.3     1  LIG1       -0.1467
     32 H          18.2950    5.9720   12.7500 H       1  LIG1        0.0805
     33 H          17.1770    4.5940   12.6920 H       1  LIG1        0.0770
     34 H          17.8500    5.1490   14.2370 H       1  LIG1        0.0786
     35 N           9.9630    1.0430   11.2580 N.pl3   1  LIG1       -0.8120
     36 H          10.3630    0.5140   10.4970 H       1  LIG1        0.3772
     37 H           9.0000    0.9030   11.5280 H       1  LIG1        0.3727
@<TRIPOS>BOND
     1     1     2   ar
     2     2     3   ar
     3     3     4   ar
     4     4     5   ar
     5     5     6   ar
     6     6     1   ar
     7     6     7    1
     8     7     8    1
     9     7     9    1
    10     5    10   ar
    11    10    11   ar
    12    11    12   ar
    13    12    13    1
    14    12    14   ar
    15    14    15    1
    16    14     4   ar
    17    11    16    1
    18    16    17    1
    19    16    18    1
    20    16    19    1
    21    19    20    1
    22    20    21   ar
    23    21    22    1
    24    21    23   ar
    25    23    24    1
    26    23    25   ar
    27    25    26   ar
    28    26    27    1
    29    26    28   ar
    30    28    20   ar
    31    28    29    1
    32    25    30    1
    33    19    31    1
    34    31    32    1
    35    31    33    1
    36    31    34    1
    37     2    35    1
    38    35    36    1
    39    35    37    1
