@<TRIPOS>MOLECULE
21_27
 34 36 0 0 0
SMALL
USER_CHARGES
****
From 3DB ct
@<TRIPOS>ATOM
      1 N          10.1570    2.6390   12.9090 N.ar    1  LIG1       -0.6560
      2 C          10.7220    1.9660   11.9090 C.ar    1  LIG1        0.7892
      3 N          11.9890    2.1160   11.5240 N.ar    1  LIG1       -0.6344
      4 C          12.7370    3.0110   12.1940 C.ar    1  LIG1        0.2523
      5 C          12.2700    3.7800   13.2620 C.ar    1  LIG1       -0.1037
      6 C          10.9330    3.5200   13.5730 C.ar    1  LIG1        0.6093
      7 N          10.2910    4.2340   14.5790 N.pl3   1  LIG1       -0.7435
      8 H          10.8630    4.5710   15.3490 H       1  LIG1        0.3548
      9 H           9.3340    3.9730   14.7890 H       1  LIG1        0.3527
     10 N          13.0490    4.6840   13.9350 N.ar    1  LIG1       -0.3778
     11 C          14.3410    4.8410   13.5490 C.ar    1  LIG1        0.2901
     12 C          14.8730    4.1200   12.4900 C.ar    1  LIG1       -0.2534
     13 H          15.9040    4.2650   12.1780 H       1  LIG1        0.1472
     14 C          14.0590    3.2050   11.8230 C.ar    1  LIG1       -0.0589
     15 H          14.4720    2.6350   10.9930 H       1  LIG1        0.1237
     16 C          15.1920    5.8630   14.2830 C.3     1  LIG1       -0.0146
     17 H          15.6240    5.3850   15.1700 H       1  LIG1        0.0774
     18 H          14.5460    6.6810   14.6230 H       1  LIG1        0.0852
     19 N          16.2400    6.3860   13.4130 N.pl3   1  LIG1       -0.6235
     20 H          17.1810    6.0320   13.5790 H       1  LIG1        0.3505
     21 C          16.0140    7.1570   12.2920 C.ar    1  LIG1        0.3706
     22 C          14.7360    7.6970   12.0910 C.ar    1  LIG1       -0.2126
     23 H          13.9480    7.5200   12.8220 H       1  LIG1        0.1169
     24 C          14.4360    8.4670   10.9620 C.ar    1  LIG1        0.1190
     25 H          13.4330    8.8710   10.8450 H       1  LIG1        0.0681
     26 C          15.4160    8.7080   10.0020 C.ar    1  LIG1       -0.3007
     27 C          16.6940    8.1710   10.1770 C.ar    1  LIG1       -0.1085
     28 C          16.9830    7.4000   11.3120 C.ar    1  LIG1       -0.1531
     29 H          17.9860    6.9940   11.4180 H       1  LIG1        0.0793
     30 CL         17.9630    8.4200    9.0260 Cl      1  LIG1        0.0564
     31 CL         14.9900    9.6670    8.6290 Cl      1  LIG1        0.0598
     32 N           9.9590    1.0650   11.2340 N.pl3   1  LIG1       -0.8157
     33 H          10.3600    0.5390   10.4720 H       1  LIG1        0.3796
     34 H           8.9950    0.9260   11.5010 H       1  LIG1        0.3741
@<TRIPOS>BOND
     1     1     2   ar
     2     2     3   ar
     3     3     4   ar
     4     4     5   ar
     5     5     6   ar
     6     6     1   ar
     7     6     7    1
     8     7     8    1
     9     7     9    1
    10     5    10   ar
    11    10    11   ar
    12    11    12   ar
    13    12    13    1
    14    12    14   ar
    15    14    15    1
    16    14     4   ar
    17    11    16    1
    18    16    17    1
    19    16    18    1
    20    16    19    1
    21    19    20    1
    22    19    21    1
    23    21    22   ar
    24    22    23    1
    25    22    24   ar
    26    24    25    1
    27    24    26   ar
    28    26    27   ar
    29    27    28   ar
    30    28    29    1
    31    28    21   ar
    32    27    30    1
    33    26    31    1
    34     2    32    1
    35    32    33    1
    36    32    34    1
