@<TRIPOS>MOLECULE
21_4
 34 36 0 0 0
SMALL
USER_CHARGES
****
From 3DB ct
@<TRIPOS>ATOM
      1 N          10.1540    2.6370   12.9070 N.ar    1  LIG1       -0.6602
      2 C          10.7210    1.9660   11.9060 C.ar    1  LIG1        0.7880
      3 N          11.9890    2.1170   11.5240 N.ar    1  LIG1       -0.6326
      4 C          12.7360    3.0110   12.1970 C.ar    1  LIG1        0.2457
      5 C          12.2670    3.7780   13.2650 C.ar    1  LIG1       -0.1096
      6 C          10.9290    3.5160   13.5750 C.ar    1  LIG1        0.6198
      7 N          10.2850    4.2260   14.5820 N.pl3   1  LIG1       -0.7537
      8 H          10.8560    4.5560   15.3560 H       1  LIG1        0.3566
      9 H           9.3290    3.9630   14.7890 H       1  LIG1        0.3545
     10 N          13.0440    4.6830   13.9390 N.ar    1  LIG1       -0.3805
     11 C          14.3370    4.8470   13.5480 C.ar    1  LIG1        0.3111
     12 C          14.8730    4.1190   12.4960 C.ar    1  LIG1       -0.2485
     13 H          15.9080    4.2540   12.1910 H       1  LIG1        0.1420
     14 C          14.0590    3.2040   11.8290 C.ar    1  LIG1       -0.0625
     15 H          14.4740    2.6300   11.0030 H       1  LIG1        0.1224
     16 C          15.2140    5.8510   14.2890 C.3     1  LIG1       -0.0384
     17 H          15.6830    5.3390   15.1370 H       1  LIG1        0.0718
     18 H          14.5730    6.6580   14.6620 H       1  LIG1        0.0793
     19 N          16.2420    6.3980   13.4120 N.pl3   1  LIG1       -0.5242
     20 H          17.1980    6.1790   13.6940 H       1  LIG1        0.3082
     21 C          16.0080    7.1510   12.2840 C.ar    1  LIG1        0.3078
     22 C          14.7340    7.7000   12.0840 C.ar    1  LIG1       -0.1995
     23 H          13.9470    7.5290   12.8170 H       1  LIG1        0.1141
     24 C          14.4400    8.4730   10.9560 C.ar    1  LIG1       -0.0595
     25 H          13.4410    8.8860   10.8270 H       1  LIG1        0.1034
     26 C          15.4230    8.7100   10.0010 C.ar    1  LIG1       -0.1889
     27 H          15.1980    9.3100    9.1210 H       1  LIG1        0.1058
     28 C          16.6940    8.1740   10.1780 C.ar    1  LIG1       -0.0003
     29 H          17.4700    8.3550    9.4350 H       1  LIG1        0.0917
     30 C          16.9810    7.4020   11.3100 C.ar    1  LIG1       -0.3165
     31 H          17.9880    7.0030   11.4100 H       1  LIG1        0.1205
     32 N           9.9590    1.0680   11.2280 N.pl3   1  LIG1       -0.8168
     33 H          10.3600    0.5450   10.4640 H       1  LIG1        0.3770
     34 H           8.9940    0.9300   11.4910 H       1  LIG1        0.3723
@<TRIPOS>BOND
     1     1     2   ar
     2     2     3   ar
     3     3     4   ar
     4     4     5   ar
     5     5     6   ar
     6     6     1   ar
     7     6     7    1
     8     7     8    1
     9     7     9    1
    10     5    10   ar
    11    10    11   ar
    12    11    12   ar
    13    12    13    1
    14    12    14   ar
    15    14    15    1
    16    14     4   ar
    17    11    16    1
    18    16    17    1
    19    16    18    1
    20    16    19    1
    21    19    20    1
    22    19    21    1
    23    21    22   ar
    24    22    23    1
    25    22    24   ar
    26    24    25    1
    27    24    26   ar
    28    26    27    1
    29    26    28   ar
    30    28    29    1
    31    28    30   ar
    32    30    31    1
    33    30    21   ar
    34     2    32    1
    35    32    33    1
    36    32    34    1
