@<TRIPOS>MOLECULE
21_43
 42 44 0 0 0
SMALL
USER_CHARGES
****
From 3DB ct
@<TRIPOS>ATOM
      1 N          10.1500    2.6370   12.9120 N.ar    1  LIG1       -0.6674
      2 C          10.7110    1.9610   11.9110 C.ar    1  LIG1        0.8029
      3 N          11.9770    2.1080   11.5230 N.ar    1  LIG1       -0.6402
      4 C          12.7300    3.0000   12.1910 C.ar    1  LIG1        0.2595
      5 C          12.2680    3.7720   13.2590 C.ar    1  LIG1       -0.1443
      6 C          10.9310    3.5160   13.5740 C.ar    1  LIG1        0.6418
      7 N          10.2940    4.2350   14.5800 N.pl3   1  LIG1       -0.7583
      8 H          10.8700    4.5740   15.3450 H       1  LIG1        0.3569
      9 H           9.3370    3.9780   14.7930 H       1  LIG1        0.3560
     10 N          13.0510    4.6740   13.9280 N.ar    1  LIG1       -0.3594
     11 C          14.3430    4.8320   13.5380 C.ar    1  LIG1        0.3409
     12 C          14.8700    4.1050   12.4800 C.ar    1  LIG1       -0.2962
     13 H          15.9030    4.2340   12.1680 H       1  LIG1        0.1572
     14 C          14.0510    3.1900   11.8180 C.ar    1  LIG1       -0.0454
     15 H          14.4620    2.6150   10.9890 H       1  LIG1        0.1215
     16 C          15.2080    5.8450   14.2820 C.3     1  LIG1       -0.1789
     17 H          15.6200    5.2930   15.1360 H       1  LIG1        0.1103
     18 H          14.5900    6.6560   14.6850 H       1  LIG1        0.0947
     19 N          16.2880    6.4300   13.4570 N.pl3   1  LIG1       -0.1850
     20 C          16.0080    7.1710   12.3170 C.ar    1  LIG1        0.2134
     21 C          16.9740    7.4200   11.3290 C.ar    1  LIG1       -0.2713
     22 H          17.9940    7.0550   11.4410 H       1  LIG1        0.1255
     23 C          16.6940    8.1720   10.1740 C.ar    1  LIG1       -0.0106
     24 H          17.5050    8.3190    9.4660 H       1  LIG1        0.1296
     25 C          15.4210    8.7060    9.9700 C.ar    1  LIG1       -0.0644
     26 C          14.4430    8.4720   10.9410 C.ar    1  LIG1       -0.1741
     27 H          13.4340    8.8660   10.8230 H       1  LIG1        0.1495
     28 C          14.7360    7.7200   12.0900 C.ar    1  LIG1       -0.1269
     29 H          13.9260    7.5590   12.7990 H       1  LIG1        0.1075
     30 C          15.0590    9.5150    8.7630 C.2     1  LIG1        0.1455
     31 O          15.9620    9.8820    7.9980 O.2     1  LIG1       -0.2819
     32 C          13.5920    9.8500    8.5340 C.3     1  LIG1        1.0304
     33 F          13.3890   10.5930    7.4000 F       1  LIG1       -0.3366
     34 F          13.0390   10.5800    9.5500 F       1  LIG1       -0.3296
     35 F          12.8020    8.7420    8.3890 F       1  LIG1       -0.3281
     36 C          17.6770    6.1030   13.7880 C.3     1  LIG1       -0.0398
     37 H          18.1530    6.9410   14.3100 H       1  LIG1        0.0500
     38 H          18.2560    5.8650   12.8880 H       1  LIG1        0.0464
     39 H          17.7440    5.2200   14.4310 H       1  LIG1        0.0647
     40 N           9.9430    1.0630   11.2380 N.pl3   1  LIG1       -0.8213
     41 H          10.3400    0.5370   10.4740 H       1  LIG1        0.3799
     42 H           8.9790    0.9280   11.5060 H       1  LIG1        0.3756
@<TRIPOS>BOND
     1     1     2   ar
     2     2     3   ar
     3     3     4   ar
     4     4     5   ar
     5     5     6   ar
     6     6     1   ar
     7     6     7    1
     8     7     8    1
     9     7     9    1
    10     5    10   ar
    11    10    11   ar
    12    11    12   ar
    13    12    13    1
    14    12    14   ar
    15    14    15    1
    16    14     4   ar
    17    11    16    1
    18    16    17    1
    19    16    18    1
    20    16    19    1
    21    19    20    1
    22    20    21   ar
    23    21    22    1
    24    21    23   ar
    25    23    24    1
    26    23    25   ar
    27    25    26   ar
    28    26    27    1
    29    26    28   ar
    30    28    29    1
    31    28    20   ar
    32    25    30    1
    33    30    31    2
    34    30    32    1
    35    32    33    1
    36    32    34    1
    37    32    35    1
    38    19    36    1
    39    36    37    1
    40    36    38    1
    41    36    39    1
    42     2    40    1
    43    40    41    1
    44    40    42    1
