@<TRIPOS>MOLECULE
21_40
 39 41 0 0 0
SMALL
USER_CHARGES
****
From 3DB ct
@<TRIPOS>ATOM
      1 N          10.1540    2.6370   12.9070 N.ar    1  LIG1       -0.6591
      2 C          10.7210    1.9660   11.9060 C.ar    1  LIG1        0.7877
      3 N          11.9890    2.1180   11.5240 N.ar    1  LIG1       -0.6313
      4 C          12.7360    3.0110   12.1970 C.ar    1  LIG1        0.2454
      5 C          12.2670    3.7780   13.2660 C.ar    1  LIG1       -0.1106
      6 C          10.9290    3.5160   13.5750 C.ar    1  LIG1        0.6225
      7 N          10.2850    4.2260   14.5830 N.pl3   1  LIG1       -0.7537
      8 H          10.8550    4.5550   15.3560 H       1  LIG1        0.3564
      9 H           9.3290    3.9620   14.7890 H       1  LIG1        0.3532
     10 N          13.0440    4.6820   13.9400 N.ar    1  LIG1       -0.3815
     11 C          14.3370    4.8460   13.5490 C.ar    1  LIG1        0.3152
     12 C          14.8730    4.1190   12.4970 C.ar    1  LIG1       -0.2582
     13 H          15.9080    4.2530   12.1910 H       1  LIG1        0.1449
     14 C          14.0590    3.2030   11.8300 C.ar    1  LIG1       -0.0562
     15 H          14.4740    2.6300   11.0030 H       1  LIG1        0.1225
     16 C          15.2140    5.8500   14.2900 C.3     1  LIG1       -0.0534
     17 H          15.6830    5.3380   15.1380 H       1  LIG1        0.0776
     18 H          14.5730    6.6580   14.6620 H       1  LIG1        0.0841
     19 N          16.2420    6.3970   13.4120 N.pl3   1  LIG1       -0.5074
     20 H          17.1980    6.1780   13.6960 H       1  LIG1        0.3085
     21 C          16.0090    7.1490   12.2860 C.ar    1  LIG1        0.3303
     22 C          14.7370    7.6990   12.0850 C.ar    1  LIG1       -0.2089
     23 H          13.9500    7.5270   12.8180 H       1  LIG1        0.1167
     24 C          14.4380    8.4740   10.9550 C.ar    1  LIG1       -0.0347
     25 H          13.4310    8.8710   10.8590 H       1  LIG1        0.1055
     26 C          15.4190    8.7160    9.9920 C.ar    1  LIG1       -0.2504
     27 C          16.6950    8.1740   10.1790 C.ar    1  LIG1        0.0445
     28 H          17.4830    8.3440    9.4480 H       1  LIG1        0.1129
     29 C          16.9820    7.4000   11.3130 C.ar    1  LIG1       -0.3406
     30 H          17.9890    7.0010   11.4130 H       1  LIG1        0.1294
     31 C          15.1530    9.5350    8.7690 C.2     1  LIG1        0.5062
     32 O          16.0490    9.7250    7.9430 O.2     1  LIG1       -0.4064
     33 C          13.7780   10.1180    8.5690 C.3     1  LIG1       -0.2606
     34 H          13.7600   10.6840    7.6330 H       1  LIG1        0.0644
     35 H          13.5350   10.8060    9.3840 H       1  LIG1        0.0743
     36 H          13.0340    9.3200    8.4960 H       1  LIG1        0.0752
     37 N           9.9590    1.0690   11.2270 N.pl3   1  LIG1       -0.8137
     38 H          10.3600    0.5460   10.4620 H       1  LIG1        0.3771
     39 H           8.9940    0.9310   11.4890 H       1  LIG1        0.3723
@<TRIPOS>BOND
     1     1     2   ar
     2     2     3   ar
     3     3     4   ar
     4     4     5   ar
     5     5     6   ar
     6     6     1   ar
     7     6     7    1
     8     7     8    1
     9     7     9    1
    10     5    10   ar
    11    10    11   ar
    12    11    12   ar
    13    12    13    1
    14    12    14   ar
    15    14    15    1
    16    14     4   ar
    17    11    16    1
    18    16    17    1
    19    16    18    1
    20    16    19    1
    21    19    20    1
    22    19    21    1
    23    21    22   ar
    24    22    23    1
    25    22    24   ar
    26    24    25    1
    27    24    26   ar
    28    26    27   ar
    29    27    28    1
    30    27    29   ar
    31    29    30    1
    32    29    21   ar
    33    26    31    1
    34    31    32    2
    35    31    33    1
    36    33    34    1
    37    33    35    1
    38    33    36    1
    39     2    37    1
    40    37    38    1
    41    37    39    1
