@<TRIPOS>MOLECULE
21_7
 41 43 0 0 0
SMALL
USER_CHARGES
****
From 3DB ct
@<TRIPOS>ATOM
      1 N          10.1520    2.6110   12.9080 N.ar    1  LIG1       -0.6685
      2 C          10.7330    1.9320   11.9210 C.ar    1  LIG1        0.7927
      3 N          11.9970    2.1030   11.5340 N.ar    1  LIG1       -0.6381
      4 C          12.7250    3.0250   12.1880 C.ar    1  LIG1        0.2624
      5 C          12.2410    3.8030   13.2420 C.ar    1  LIG1       -0.1471
      6 C          10.9090    3.5200   13.5580 C.ar    1  LIG1        0.6439
      7 N          10.2510    4.2390   14.5490 N.pl3   1  LIG1       -0.7652
      8 H          10.8150    4.6040   15.3110 H       1  LIG1        0.3608
      9 H           9.3000    3.9620   14.7630 H       1  LIG1        0.3556
     10 N          12.9980    4.7360   13.8970 N.ar    1  LIG1       -0.3812
     11 C          14.2870    4.9210   13.5060 C.ar    1  LIG1        0.3775
     12 C          14.8360    4.1870   12.4640 C.ar    1  LIG1       -0.2665
     13 H          15.8670    4.3360   12.1540 H       1  LIG1        0.1500
     14 C          14.0420    3.2410   11.8150 C.ar    1  LIG1       -0.0706
     15 H          14.4700    2.6620   10.9990 H       1  LIG1        0.1249
     16 C          15.1230    5.9600   14.2420 C.3     1  LIG1       -0.1773
     17 H          15.4790    5.4710   15.1600 H       1  LIG1        0.1010
     18 H          14.4940    6.8040   14.5510 H       1  LIG1        0.0878
     19 N          16.2690    6.4410   13.4430 N.pl3   1  LIG1       -0.1569
     20 C          15.9990    7.1810   12.2770 C.ar    1  LIG1       -0.0346
     21 C          14.7340    7.7590   12.0650 C.ar    1  LIG1       -0.0732
     22 H          13.9370    7.6390   12.7960 H       1  LIG1        0.0978
     23 C          14.4490    8.4790   10.9030 C.ar    1  LIG1       -0.1420
     24 H          13.4600    8.9130   10.7620 H       1  LIG1        0.1122
     25 C          15.4250    8.6360    9.9270 C.ar    1  LIG1       -0.0952
     26 H          15.2030    9.1970    9.0200 H       1  LIG1        0.1080
     27 C          16.6890    8.0750   10.1080 C.ar    1  LIG1       -0.2397
     28 H          17.4220    8.2280    9.3200 H       1  LIG1        0.1316
     29 C          16.9870    7.3510   11.2710 C.ar    1  LIG1        0.2490
     30 O          18.2200    6.7970   11.5320 O.3     1  LIG1       -0.2816
     31 C          19.2320    6.9440   10.5400 C.3     1  LIG1        0.0156
     32 H          20.1290    6.4330   10.9030 H       1  LIG1        0.0588
     33 H          19.4870    7.9980   10.3910 H       1  LIG1        0.0403
     34 H          18.9350    6.4670    9.6000 H       1  LIG1        0.0357
     35 C          17.4420    5.5670   13.3470 C.3     1  LIG1       -0.0687
     36 H          18.2880    6.0500   12.8490 H       1  LIG1        0.0697
     37 H          17.1930    4.6570   12.7890 H       1  LIG1        0.0521
     38 H          17.7920    5.2730   14.3410 H       1  LIG1        0.0499
     39 N           9.9890    1.0060   11.2600 N.pl3   1  LIG1       -0.8205
     40 H          10.4000    0.4780   10.5050 H       1  LIG1        0.3771
     41 H           9.0270    0.8540   11.5250 H       1  LIG1        0.3728
@<TRIPOS>BOND
     1     1     2   ar
     2     2     3   ar
     3     3     4   ar
     4     4     5   ar
     5     5     6   ar
     6     6     1   ar
     7     6     7    1
     8     7     8    1
     9     7     9    1
    10     5    10   ar
    11    10    11   ar
    12    11    12   ar
    13    12    13    1
    14    12    14   ar
    15    14    15    1
    16    14     4   ar
    17    11    16    1
    18    16    17    1
    19    16    18    1
    20    16    19    1
    21    19    20    1
    22    20    21   ar
    23    21    22    1
    24    21    23   ar
    25    23    24    1
    26    23    25   ar
    27    25    26    1
    28    25    27   ar
    29    27    28    1
    30    27    29   ar
    31    29    20   ar
    32    29    30    1
    33    30    31    1
    34    31    32    1
    35    31    33    1
    36    31    34    1
    37    19    35    1
    38    35    36    1
    39    35    37    1
    40    35    38    1
    41     2    39    1
    42    39    40    1
    43    39    41    1
