@<TRIPOS>MOLECULE
21_9
 41 43 0 0 0
SMALL
USER_CHARGES
****
From 3DB ct
@<TRIPOS>ATOM
      1 N          10.1500    2.6330   12.9120 N.ar    1  LIG1       -0.6702
      2 C          10.7140    1.9540   11.9150 C.ar    1  LIG1        0.7995
      3 N          11.9790    2.1050   11.5250 N.ar    1  LIG1       -0.6385
      4 C          12.7280    3.0050   12.1870 C.ar    1  LIG1        0.2529
      5 C          12.2630    3.7790   13.2520 C.ar    1  LIG1       -0.1420
      6 C          10.9270    3.5190   13.5700 C.ar    1  LIG1        0.6444
      7 N          10.2870    4.2380   14.5730 N.pl3   1  LIG1       -0.7628
      8 H          10.8620    4.5840   15.3360 H       1  LIG1        0.3593
      9 H           9.3320    3.9770   14.7890 H       1  LIG1        0.3562
     10 N          13.0420    4.6870   13.9170 N.ar    1  LIG1       -0.3756
     11 C          14.3340    4.8480   13.5260 C.ar    1  LIG1        0.3803
     12 C          14.8640    4.1210   12.4710 C.ar    1  LIG1       -0.2959
     13 H          15.8960    4.2520   12.1590 H       1  LIG1        0.1546
     14 C          14.0480    3.2000   11.8120 C.ar    1  LIG1       -0.0501
     15 H          14.4610    2.6240   10.9860 H       1  LIG1        0.1212
     16 C          15.1960    5.8600   14.2760 C.3     1  LIG1       -0.2036
     17 H          15.5970    5.3120   15.1370 H       1  LIG1        0.1004
     18 H          14.5800    6.6760   14.6700 H       1  LIG1        0.1040
     19 N          16.2820    6.4330   13.4500 N.pl3   1  LIG1       -0.1363
     20 C          16.0120    7.1740   12.3070 C.ar    1  LIG1        0.1683
     21 C          14.7480    7.7290   12.0590 C.ar    1  LIG1       -0.2548
     22 H          13.9210    7.5740   12.7490 H       1  LIG1        0.1109
     23 C          14.4830    8.4720   10.9020 C.ar    1  LIG1        0.0361
     24 H          13.4870    8.8820   10.7410 H       1  LIG1        0.1000
     25 C          15.4810    8.6830    9.9540 C.ar    1  LIG1       -0.3520
     26 H          15.2350    9.2650    9.0710 H       1  LIG1        0.1473
     27 C          16.7470    8.1470   10.1630 C.ar    1  LIG1        0.3793
     28 C          16.9960    7.4020   11.3270 C.ar    1  LIG1       -0.3406
     29 H          18.0040    7.0130   11.4660 H       1  LIG1        0.1220
     30 O          17.8200    8.2740    9.3240 O.3     1  LIG1       -0.3103
     31 C          19.0340    7.6440    9.7330 C.3     1  LIG1        0.0508
     32 H          19.7850    7.8400    8.9620 H       1  LIG1        0.0597
     33 H          18.9070    6.5590    9.8090 H       1  LIG1        0.0292
     34 H          19.4000    8.0700   10.6730 H       1  LIG1        0.0286
     35 C          17.6680    6.1250   13.8090 C.3     1  LIG1       -0.0492
     36 H          18.1180    6.9620   14.3530 H       1  LIG1        0.0437
     37 H          18.2710    5.9080   12.9200 H       1  LIG1        0.0407
     38 H          17.7310    5.2330   14.4420 H       1  LIG1        0.0625
     39 N           9.9510    1.0470   11.2490 N.pl3   1  LIG1       -0.8233
     40 H          10.3510    0.5150   10.4910 H       1  LIG1        0.3786
     41 H           8.9890    0.9060   11.5210 H       1  LIG1        0.3744
@<TRIPOS>BOND
     1     1     2   ar
     2     2     3   ar
     3     3     4   ar
     4     4     5   ar
     5     5     6   ar
     6     6     1   ar
     7     6     7    1
     8     7     8    1
     9     7     9    1
    10     5    10   ar
    11    10    11   ar
    12    11    12   ar
    13    12    13    1
    14    12    14   ar
    15    14    15    1
    16    14     4   ar
    17    11    16    1
    18    16    17    1
    19    16    18    1
    20    16    19    1
    21    19    20    1
    22    20    21   ar
    23    21    22    1
    24    21    23   ar
    25    23    24    1
    26    23    25   ar
    27    25    26    1
    28    25    27   ar
    29    27    28   ar
    30    28    29    1
    31    28    20   ar
    32    27    30    1
    33    30    31    1
    34    31    32    1
    35    31    33    1
    36    31    34    1
    37    19    35    1
    38    35    36    1
    39    35    37    1
    40    35    38    1
    41     2    39    1
    42    39    40    1
    43    39    41    1
