@<TRIPOS>MOLECULE
22_11
 35 37 0 0 0
SMALL
USER_CHARGES
****
From 3DB ct
@<TRIPOS>ATOM
      1 N          10.2650    2.6920   13.1240 N.ar    1  LIG1       -0.6699
      2 C          10.6890    1.6920   12.3540 C.ar    1  LIG1        0.7977
      3 N          11.8910    1.6440   11.7810 N.ar    1  LIG1       -0.6361
      4 C          12.7220    2.6790   12.0020 C.ar    1  LIG1        0.2392
      5 C          12.4050    3.7850   12.7890 C.ar    1  LIG1       -0.1590
      6 C          11.1240    3.7100   13.3400 C.ar    1  LIG1        0.6475
      7 N          10.6240    4.7540   14.1100 N.pl3   1  LIG1       -0.7550
      8 H          11.2950    5.3070   14.6350 H       1  LIG1        0.3507
      9 H           9.7050    4.6250   14.5180 H       1  LIG1        0.3501
     10 N          13.2650    4.8290   13.0040 N.ar    1  LIG1       -0.4199
     11 C          14.4870    4.8060   12.4380 C.ar    1  LIG1        0.6597
     12 C          14.8650    3.7410   11.6320 C.ar    1  LIG1       -0.3918
     13 H          15.8420    3.7200   11.1580 H       1  LIG1        0.1704
     14 C          13.9780    2.6820   11.4240 C.ar    1  LIG1       -0.0177
     15 H          14.2840    1.8500   10.7940 H       1  LIG1        0.1224
     16 N          15.3890    5.8650   12.6100 N.pl3   1  LIG1       -0.6803
     17 H          15.9310    5.8090   13.4740 H       1  LIG1        0.3039
     18 C          15.5400    7.1110   11.9630 C.ar    1  LIG1        0.2537
     19 C          14.4650    7.9670   11.6960 C.ar    1  LIG1       -0.1814
     20 H          13.4510    7.6990   11.9800 H       1  LIG1        0.1427
     21 C          14.6610    9.1860   11.0410 C.ar    1  LIG1       -0.1022
     22 H          13.8120    9.8380   10.8440 H       1  LIG1        0.1107
     23 C          15.9380    9.5640   10.6390 C.ar    1  LIG1       -0.1473
     24 H          16.0880   10.5140   10.1290 H       1  LIG1        0.1183
     25 C          17.0240    8.7250   10.8840 C.ar    1  LIG1       -0.1685
     26 H          18.0040    9.0550   10.5500 H       1  LIG1        0.1212
     27 C          16.8350    7.5020   11.5380 C.ar    1  LIG1        0.1012
     28 O          17.8390    6.6040   11.8230 O.3     1  LIG1       -0.2218
     29 C          19.1610    6.9630   11.4270 C.3     1  LIG1       -0.0316
     30 H          19.8280    6.1460   11.7200 H       1  LIG1        0.0691
     31 H          19.4950    7.8680   11.9430 H       1  LIG1        0.0509
     32 H          19.2290    7.0740   10.3390 H       1  LIG1        0.0531
     33 N           9.8410    0.6520   12.1340 N.pl3   1  LIG1       -0.8345
     34 H          10.1350   -0.1200   11.5530 H       1  LIG1        0.3791
     35 H           8.9230    0.6580   12.5520 H       1  LIG1        0.3755
@<TRIPOS>BOND
     1     1     2   ar
     2     2     3   ar
     3     3     4   ar
     4     4     5   ar
     5     5     6   ar
     6     6     1   ar
     7     6     7    1
     8     7     8    1
     9     7     9    1
    10     5    10   ar
    11    10    11   ar
    12    11    12   ar
    13    12    13    1
    14    12    14   ar
    15    14    15    1
    16    14     4   ar
    17    11    16    1
    18    16    17    1
    19    16    18    1
    20    18    19   ar
    21    19    20    1
    22    19    21   ar
    23    21    22    1
    24    21    23   ar
    25    23    24    1
    26    23    25   ar
    27    25    26    1
    28    25    27   ar
    29    27    18   ar
    30    27    28    1
    31    28    29    1
    32    29    30    1
    33    29    31    1
    34    29    32    1
    35     2    33    1
    36    33    34    1
    37    33    35    1
