@<TRIPOS>MOLECULE
22_14
 39 41 0 0 0
SMALL
USER_CHARGES
****
From 3DB ct
@<TRIPOS>ATOM
      1 N          10.2680    2.7030   13.1400 N.ar    1  LIG1       -0.6767
      2 C          10.6810    1.6330   12.4640 C.ar    1  LIG1        0.8028
      3 N          11.8850    1.5180   11.9050 N.ar    1  LIG1       -0.6438
      4 C          12.7290    2.5570   12.0390 C.ar    1  LIG1        0.2563
      5 C          12.4250    3.7310   12.7240 C.ar    1  LIG1       -0.1813
      6 C          11.1400    3.7240   13.2700 C.ar    1  LIG1        0.6601
      7 N          10.6520    4.8390   13.9420 N.pl3   1  LIG1       -0.7643
      8 H          11.3270    5.4320   14.4160 H       1  LIG1        0.3552
      9 H           9.7290    4.7620   14.3540 H       1  LIG1        0.3579
     10 N          13.3020    4.7750   12.8530 N.ar    1  LIG1       -0.3897
     11 C          14.5320    4.6800   12.3080 C.ar    1  LIG1        0.6270
     12 C          14.8930    3.5530   11.5910 C.ar    1  LIG1       -0.3799
     13 H          15.8490    3.4760   11.0870 H       1  LIG1        0.1690
     14 C          13.9870    2.4950   11.4680 C.ar    1  LIG1       -0.0286
     15 H          14.2790    1.6110   10.9050 H       1  LIG1        0.1235
     16 N          15.3530    5.7830   12.4970 N.pl3   1  LIG1       -0.6389
     17 H          16.0890    5.5780   13.1730 H       1  LIG1        0.2861
     18 C          15.4860    7.0600   11.9170 C.ar    1  LIG1        0.3256
     19 C          14.3980    7.9120   11.6810 C.ar    1  LIG1       -0.3901
     20 H          13.3830    7.5790   11.8740 H       1  LIG1        0.1835
     21 C          14.5720    9.1920   11.1390 C.ar    1  LIG1        0.3658
     22 C          15.8550    9.6330   10.8280 C.ar    1  LIG1       -0.3042
     23 H          16.0400   10.6180   10.4060 H       1  LIG1        0.1380
     24 C          16.9570    8.8000   11.0480 C.ar    1  LIG1       -0.1275
     25 H          17.9380    9.1850   10.7850 H       1  LIG1        0.1300
     26 C          16.7820    7.5220   11.5870 C.ar    1  LIG1        0.0241
     27 O          17.8020    6.6320   11.8330 O.3     1  LIG1       -0.1995
     28 C          19.1260    7.0540   11.5110 C.3     1  LIG1       -0.0458
     29 H          19.8060    6.2350   11.7670 H       1  LIG1        0.0708
     30 H          19.4160    7.9260   12.1050 H       1  LIG1        0.0544
     31 H          19.2270    7.2480   10.4380 H       1  LIG1        0.0554
     32 O          13.4150    9.8990   10.9600 O.3     1  LIG1       -0.3065
     33 C          13.5400   11.2100   10.4110 C.3     1  LIG1        0.0728
     34 H          12.5350   11.6370   10.3360 H       1  LIG1        0.0529
     35 H          13.9630   11.1740    9.4020 H       1  LIG1        0.0247
     36 H          14.1300   11.8580   11.0680 H       1  LIG1        0.0215
     37 N           9.8190    0.5900   12.3320 N.pl3   1  LIG1       -0.8359
     38 H          10.1030   -0.2350   11.8240 H       1  LIG1        0.3797
     39 H           8.8990    0.6450   12.7440 H       1  LIG1        0.3756
@<TRIPOS>BOND
     1     1     2   ar
     2     2     3   ar
     3     3     4   ar
     4     4     5   ar
     5     5     6   ar
     6     6     1   ar
     7     6     7    1
     8     7     8    1
     9     7     9    1
    10     5    10   ar
    11    10    11   ar
    12    11    12   ar
    13    12    13    1
    14    12    14   ar
    15    14    15    1
    16    14     4   ar
    17    11    16    1
    18    16    17    1
    19    16    18    1
    20    18    19   ar
    21    19    20    1
    22    19    21   ar
    23    21    22   ar
    24    22    23    1
    25    22    24   ar
    26    24    25    1
    27    24    26   ar
    28    26    18   ar
    29    26    27    1
    30    27    28    1
    31    28    29    1
    32    28    30    1
    33    28    31    1
    34    21    32    1
    35    32    33    1
    36    33    34    1
    37    33    35    1
    38    33    36    1
    39     2    37    1
    40    37    38    1
    41    37    39    1
