@<TRIPOS>MOLECULE
22_15
 39 41 0 0 0
SMALL
USER_CHARGES
****
From 3DB ct
@<TRIPOS>ATOM
      1 N          10.2250    2.6850   13.1330 N.ar    1  LIG1       -0.6677
      2 C          10.6450    1.6290   12.4410 C.ar    1  LIG1        0.8019
      3 N          11.8580    1.5200   11.9020 N.ar    1  LIG1       -0.6391
      4 C          12.7040    2.5500   12.0760 C.ar    1  LIG1        0.2308
      5 C          12.3950    3.7130   12.7810 C.ar    1  LIG1       -0.1381
      6 C          11.1000    3.6980   13.3040 C.ar    1  LIG1        0.6402
      7 N          10.6030    4.7970   13.9960 N.pl3   1  LIG1       -0.7590
      8 H          11.2710    5.3620   14.5130 H       1  LIG1        0.3556
      9 H           9.6720    4.7070   14.3880 H       1  LIG1        0.3553
     10 N          13.2760    4.7500   12.9450 N.ar    1  LIG1       -0.4162
     11 C          14.5120    4.6560   12.4150 C.ar    1  LIG1        0.6153
     12 C          14.8800    3.5370   11.6870 C.ar    1  LIG1       -0.3845
     13 H          15.8480    3.4630   11.2040 H       1  LIG1        0.1606
     14 C          13.9710    2.4890   11.5270 C.ar    1  LIG1       -0.0045
     15 H          14.2670    1.6140   10.9520 H       1  LIG1        0.1205
     16 N          15.3440    5.7540   12.6190 N.pl3   1  LIG1       -0.6926
     17 H          16.0300    5.5560   13.3450 H       1  LIG1        0.3271
     18 C          15.5180    6.9820   11.9660 C.ar    1  LIG1        0.3748
     19 C          14.4890    7.9110   11.7790 C.ar    1  LIG1       -0.2382
     20 H          13.4680    7.6780   12.0740 H       1  LIG1        0.1581
     21 C          14.7200    9.1480   11.1560 C.ar    1  LIG1       -0.1359
     22 H          13.8680    9.8110   11.0260 H       1  LIG1        0.1366
     23 C          15.9970    9.4890   10.7150 C.ar    1  LIG1        0.1233
     24 C          17.0340    8.5710   10.9150 C.ar    1  LIG1        0.1688
     25 C          16.7980    7.3290   11.5150 C.ar    1  LIG1       -0.3729
     26 H          17.6270    6.6350   11.6420 H       1  LIG1        0.1579
     27 O          18.3040    8.8410   10.4660 O.3     1  LIG1       -0.2392
     28 C          19.1770    7.7520   10.7910 C.3     1  LIG1       -0.0093
     29 H          20.1830    8.0180   10.4530 H       1  LIG1        0.0623
     30 H          18.8730    6.8380   10.2690 H       1  LIG1        0.0528
     31 H          19.2170    7.5820   11.8720 H       1  LIG1        0.0444
     32 O          16.3310   10.6610   10.0900 O.3     1  LIG1       -0.2924
     33 C          17.6960   10.8270    9.7130 C.3     1  LIG1        0.1031
     34 H          17.7840   11.7870    9.1960 H       1  LIG1        0.0295
     35 H          18.0110   10.0440    9.0160 H       1  LIG1        0.0278
     36 H          18.3430   10.8600   10.5950 H       1  LIG1        0.0204
     37 N           9.7830    0.5920   12.2720 N.pl3   1  LIG1       -0.8324
     38 H          10.0730   -0.2210   11.7480 H       1  LIG1        0.3799
     39 H           8.8520    0.6470   12.6590 H       1  LIG1        0.3752
@<TRIPOS>BOND
     1     1     2   ar
     2     2     3   ar
     3     3     4   ar
     4     4     5   ar
     5     5     6   ar
     6     6     1   ar
     7     6     7    1
     8     7     8    1
     9     7     9    1
    10     5    10   ar
    11    10    11   ar
    12    11    12   ar
    13    12    13    1
    14    12    14   ar
    15    14    15    1
    16    14     4   ar
    17    11    16    1
    18    16    17    1
    19    16    18    1
    20    18    19   ar
    21    19    20    1
    22    19    21   ar
    23    21    22    1
    24    21    23   ar
    25    23    24   ar
    26    24    25   ar
    27    25    26    1
    28    25    18   ar
    29    24    27    1
    30    27    28    1
    31    28    29    1
    32    28    30    1
    33    28    31    1
    34    23    32    1
    35    32    33    1
    36    33    34    1
    37    33    35    1
    38    33    36    1
    39     2    37    1
    40    37    38    1
    41    37    39    1
