@<TRIPOS>MOLECULE
22_23
 40 43 0 0 0
SMALL
USER_CHARGES
****
From 3DB ct
@<TRIPOS>ATOM
      1 N          10.2610    2.7730   13.0670 N.ar    1  LIG1       -0.6784
      2 C          10.6640    1.7890   12.2660 C.ar    1  LIG1        0.8230
      3 N          11.8720    1.7260   11.7070 N.ar    1  LIG1       -0.6505
      4 C          12.7310    2.7250   11.9790 C.ar    1  LIG1        0.2162
      5 C          12.4370    3.8120   12.7970 C.ar    1  LIG1       -0.1560
      6 C          11.1390    3.7680   13.3110 C.ar    1  LIG1        0.6527
      7 N          10.6940    4.7500   14.1880 N.pl3   1  LIG1       -0.7772
      8 H          11.1070    5.6750   14.1000 H       1  LIG1        0.3539
      9 H           9.7300    4.6940   14.4950 H       1  LIG1        0.3611
     10 N          13.3260    4.8190   13.0570 N.ar    1  LIG1       -0.3961
     11 C          14.5640    4.7960   12.5100 C.ar    1  LIG1        0.6055
     12 C          14.9180    3.7310   11.6900 C.ar    1  LIG1       -0.4292
     13 H          15.8990    3.6580   11.2310 H       1  LIG1        0.1699
     14 C          13.9990    2.7080   11.4310 C.ar    1  LIG1        0.0368
     15 H          14.2940    1.8840   10.7840 H       1  LIG1        0.1129
     16 N          15.4450    5.8440   12.8170 N.pl3   1  LIG1       -0.4594
     17 C          15.5850    7.0400   12.0630 C.ar    1  LIG1        0.1250
     18 C          14.4400    7.8120   11.7980 C.ar    1  LIG1       -0.0850
     19 H          13.4720    7.5010   12.1880 H       1  LIG1        0.1064
     20 C          14.5170    8.9680   11.0270 C.ar    1  LIG1       -0.1423
     21 H          13.6200    9.5510   10.8260 H       1  LIG1        0.1221
     22 C          15.7440    9.3730   10.5080 C.ar    1  LIG1       -0.1743
     23 H          15.7820   10.2800    9.9040 H       1  LIG1        0.1283
     24 C          16.9110    8.6370   10.7600 C.ar    1  LIG1        0.0924
     25 C          16.8490    7.4590   11.5490 C.ar    1  LIG1        0.0389
     26 C          18.0610    6.7720   11.7970 C.ar    1  LIG1       -0.1408
     27 H          18.0680    5.8780   12.4180 H       1  LIG1        0.1246
     28 C          19.2770    7.2140   11.2710 C.ar    1  LIG1       -0.0984
     29 H          20.1920    6.6620   11.4790 H       1  LIG1        0.1050
     30 C          19.3170    8.3600   10.4890 C.ar    1  LIG1       -0.0769
     31 H          20.2620    8.7090   10.0770 H       1  LIG1        0.1015
     32 C          18.1420    9.0680   10.2370 C.ar    1  LIG1       -0.1820
     33 H          18.1970    9.9690    9.6270 H       1  LIG1        0.1196
     34 C          16.5260    5.6310   13.7870 C.3     1  LIG1       -0.0288
     35 H          17.1330    6.5310   13.9500 H       1  LIG1        0.0709
     36 H          17.2080    4.8480   13.4360 H       1  LIG1        0.0597
     37 H          16.1220    5.3470   14.7640 H       1  LIG1        0.0362
     38 N           9.7900    0.7820   12.0010 N.pl3   1  LIG1       -0.8474
     39 H          10.0690    0.0220   11.3990 H       1  LIG1        0.3829
     40 H           8.8680    0.7990   12.4100 H       1  LIG1        0.3773
@<TRIPOS>BOND
     1     1     2   ar
     2     2     3   ar
     3     3     4   ar
     4     4     5   ar
     5     5     6   ar
     6     6     1   ar
     7     6     7    1
     8     7     8    1
     9     7     9    1
    10     5    10   ar
    11    10    11   ar
    12    11    12   ar
    13    12    13    1
    14    12    14   ar
    15    14    15    1
    16    14     4   ar
    17    11    16    1
    18    16    17    1
    19    17    18   ar
    20    18    19    1
    21    18    20   ar
    22    20    21    1
    23    20    22   ar
    24    22    23    1
    25    22    24   ar
    26    24    25   ar
    27    25    17   ar
    28    25    26   ar
    29    26    27    1
    30    26    28   ar
    31    28    29    1
    32    28    30   ar
    33    30    31    1
    34    30    32   ar
    35    32    33    1
    36    32    24   ar
    37    16    34    1
    38    34    35    1
    39    34    36    1
    40    34    37    1
    41     2    38    1
    42    38    39    1
    43    38    40    1
