@<TRIPOS>MOLECULE
22_4
 34 36 0 0 0
SMALL
USER_CHARGES
****
From 3DB ct
@<TRIPOS>ATOM
      1 N          10.2180    2.8200   12.9420 N.ar    1  LIG1       -0.6720
      2 C          10.6200    1.9650   12.0040 C.ar    1  LIG1        0.8174
      3 N          11.8530    1.9290   11.5000 N.ar    1  LIG1       -0.6354
      4 C          12.7380    2.8260   11.9680 C.ar    1  LIG1        0.1629
      5 C          12.4470    3.7790   12.9470 C.ar    1  LIG1       -0.0508
      6 C          11.1300    3.6990   13.4060 C.ar    1  LIG1        0.6197
      7 N          10.6560    4.6040   14.3490 N.pl3   1  LIG1       -0.7670
      8 H          11.3290    4.9920   15.0030 H       1  LIG1        0.3606
      9 H           9.7060    4.4730   14.6760 H       1  LIG1        0.3612
     10 N          13.3590    4.6880   13.4090 N.ar    1  LIG1       -0.4048
     11 C          14.6010    4.6720   12.8780 C.ar    1  LIG1        0.3449
     12 C          14.9770    3.7540   11.9150 C.ar    1  LIG1       -0.3699
     13 H          15.9820    3.7440   11.5040 H       1  LIG1        0.1680
     14 C          14.0300    2.8320   11.4660 C.ar    1  LIG1        0.0500
     15 H          14.3130    2.1090   10.7040 H       1  LIG1        0.1060
     16 S          15.7890    5.8590   13.4730 S.3     1  LIG1       -0.0118
     17 C          15.7130    7.1130   12.1910 C.ar    1  LIG1       -0.1830
     18 C          14.4710    7.7000   11.8960 C.ar    1  LIG1       -0.0111
     19 H          13.5750    7.4100   12.4440 H       1  LIG1        0.1018
     20 C          14.3630    8.6620   10.8930 C.ar    1  LIG1       -0.2031
     21 H          13.3970    9.1130   10.6710 H       1  LIG1        0.1282
     22 C          15.4920    9.0430   10.1760 C.ar    1  LIG1       -0.0290
     23 H          15.4100    9.7960    9.3930 H       1  LIG1        0.1142
     24 C          16.7320    8.4620   10.4540 C.ar    1  LIG1       -0.3391
     25 H          17.5840    8.7950    9.8680 H       1  LIG1        0.1463
     26 C          16.8540    7.4870   11.4520 C.ar    1  LIG1        0.4252
     27 O          18.0320    6.8590   11.7720 O.3     1  LIG1       -0.3379
     28 C          19.2180    7.3310   11.1380 C.3     1  LIG1        0.0717
     29 H          20.0380    6.6680   11.4300 H       1  LIG1        0.0587
     30 H          19.4680    8.3420   11.4770 H       1  LIG1        0.0308
     31 H          19.1290    7.2870   10.0470 H       1  LIG1        0.0218
     32 N           9.7150    1.0710   11.5250 N.pl3   1  LIG1       -0.8306
     33 H           9.9880    0.4150   10.8080 H       1  LIG1        0.3811
     34 H           8.7710    1.0750   11.8820 H       1  LIG1        0.3752
@<TRIPOS>BOND
     1     1     2   ar
     2     2     3   ar
     3     3     4   ar
     4     4     5   ar
     5     5     6   ar
     6     6     1   ar
     7     6     7    1
     8     7     8    1
     9     7     9    1
    10     5    10   ar
    11    10    11   ar
    12    11    12   ar
    13    12    13    1
    14    12    14   ar
    15    14    15    1
    16    14     4   ar
    17    11    16    1
    18    16    17    1
    19    17    18   ar
    20    18    19    1
    21    18    20   ar
    22    20    21    1
    23    20    22   ar
    24    22    23    1
    25    22    24   ar
    26    24    25    1
    27    24    26   ar
    28    26    17   ar
    29    26    27    1
    30    27    28    1
    31    28    29    1
    32    28    30    1
    33    28    31    1
    34     2    32    1
    35    32    33    1
    36    32    34    1
