@<TRIPOS>MOLECULE
22_7
 36 38 0 0 0
SMALL
USER_CHARGES
****
From 3DB ct
@<TRIPOS>ATOM
      1 N          10.1880    2.7680   13.0110 N.ar    1  LIG1       -0.6566
      2 C          10.5750    1.8270   12.1510 C.ar    1  LIG1        0.7798
      3 N          11.7970    1.7460   11.6250 N.ar    1  LIG1       -0.6175
      4 C          12.6920    2.6790   11.9900 C.ar    1  LIG1        0.2017
      5 C          12.4170    3.7190   12.8870 C.ar    1  LIG1       -0.0107
      6 C          11.1080    3.6850   13.3730 C.ar    1  LIG1        0.6219
      7 N          10.6530    4.6770   14.2350 N.pl3   1  LIG1       -0.7766
      8 H          11.3360    5.1110   14.8490 H       1  LIG1        0.3773
      9 H           9.7070    4.5790   14.5870 H       1  LIG1        0.3611
     10 N          13.3380    4.6610   13.2520 N.ar    1  LIG1       -0.4034
     11 C          14.5730    4.5630   12.6940 C.ar    1  LIG1        0.0614
     12 C          14.9450    3.5760   11.8060 C.ar    1  LIG1       -0.2247
     13 H          15.9440    3.5230   11.3870 H       1  LIG1        0.1754
     14 C          13.9770    2.6330   11.4610 C.ar    1  LIG1       -0.0191
     15 H          14.2370    1.8410   10.7610 H       1  LIG1        0.1187
     16 S          15.7350    5.8160   13.2360 S.O2    1  LIG1        1.4261
     17 C          15.7000    7.2080   12.1270 C.ar    1  LIG1       -0.2784
     18 C          14.4870    7.8520   11.8450 C.ar    1  LIG1       -0.0200
     19 H          13.5470    7.5310   12.2850 H       1  LIG1        0.1352
     20 C          14.4640    8.9410   10.9750 C.ar    1  LIG1       -0.1424
     21 H          13.5240    9.4450   10.7560 H       1  LIG1        0.1186
     22 C          15.6450    9.3830   10.3850 C.ar    1  LIG1       -0.0348
     23 H          15.6270   10.2330    9.7050 H       1  LIG1        0.1116
     24 C          16.8540    8.7380   10.6600 C.ar    1  LIG1       -0.1933
     25 H          17.7460    9.1200   10.1690 H       1  LIG1        0.1365
     26 C          16.8980    7.6420   11.5320 C.ar    1  LIG1        0.1948
     27 O          18.0420    6.9540   11.8380 O.3     1  LIG1       -0.2755
     28 C          19.2600    7.3920   11.2360 C.3     1  LIG1       -0.0057
     29 H          20.0600    6.7370   11.5950 H       1  LIG1        0.0814
     30 H          19.5040    8.4150   11.5420 H       1  LIG1        0.0631
     31 H          19.2160    7.3000   10.1460 H       1  LIG1        0.0455
     32 O          17.0760    5.2420   13.1320 O.2     1  LIG1       -0.6523
     33 O          15.2690    6.2750   14.5440 O.2     1  LIG1       -0.6515
     34 N           9.6640    0.8880   11.7830 N.pl3   1  LIG1       -0.7910
     35 H           9.9280    0.1620   11.1330 H       1  LIG1        0.3741
     36 H           8.7300    0.9190   12.1630 H       1  LIG1        0.3693
@<TRIPOS>BOND
     1     1     2   ar
     2     2     3   ar
     3     3     4   ar
     4     4     5   ar
     5     5     6   ar
     6     6     1   ar
     7     6     7    1
     8     7     8    1
     9     7     9    1
    10     5    10   ar
    11    10    11   ar
    12    11    12   ar
    13    12    13    1
    14    12    14   ar
    15    14    15    1
    16    14     4   ar
    17    11    16    1
    18    16    17    1
    19    17    18   ar
    20    18    19    1
    21    18    20   ar
    22    20    21    1
    23    20    22   ar
    24    22    23    1
    25    22    24   ar
    26    24    25    1
    27    24    26   ar
    28    26    17   ar
    29    26    27    1
    30    27    28    1
    31    28    29    1
    32    28    30    1
    33    28    31    1
    34    16    32    2
    35    16    33    2
    36     2    34    1
    37    34    35    1
    38    34    36    1
