@<TRIPOS>MOLECULE
22_8
 36 38 0 0 0
SMALL
USER_CHARGES
****
From 3DB ct
@<TRIPOS>ATOM
      1 N          10.1910    2.7870   13.0020 N.ar    1  LIG1       -0.6417
      2 C          10.5720    1.8480   12.1380 C.ar    1  LIG1        0.7970
      3 N          11.7930    1.7620   11.6110 N.ar    1  LIG1       -0.6447
      4 C          12.6950    2.6870   11.9830 C.ar    1  LIG1        0.2763
      5 C          12.4250    3.7260   12.8800 C.ar    1  LIG1       -0.0822
      6 C          11.1090    3.7120   13.3480 C.ar    1  LIG1        0.5914
      7 N          10.6850    4.6480   14.2860 N.pl3   1  LIG1       -0.7485
      8 H          11.1300    5.5610   14.2690 H       1  LIG1        0.3703
      9 H           9.7090    4.6130   14.5580 H       1  LIG1        0.3522
     10 N          13.3530    4.6610   13.2480 N.ar    1  LIG1       -0.2929
     11 C          14.5950    4.5500   12.7030 C.ar    1  LIG1       -0.0945
     12 C          14.9590    3.5630   11.8120 C.ar    1  LIG1       -0.1604
     13 H          15.9510    3.4960   11.3820 H       1  LIG1        0.1573
     14 C          13.9820    2.6300   11.4610 C.ar    1  LIG1       -0.0529
     15 H          14.2370    1.8380   10.7580 H       1  LIG1        0.1234
     16 S          15.7370    5.8120   13.2540 S.O2    1  LIG1        1.5422
     17 C          15.6840    7.1860   12.1180 C.ar    1  LIG1       -0.4720
     18 C          16.8690    7.6370   11.5280 C.ar    1  LIG1        0.0528
     19 H          17.8190    7.1490   11.7390 H       1  LIG1        0.1338
     20 C          16.8380    8.7270   10.6500 C.ar    1  LIG1       -0.2916
     21 H          17.7780    9.0470   10.2060 H       1  LIG1        0.1330
     22 C          15.6310    9.3710   10.3690 C.ar    1  LIG1        0.4278
     23 C          14.4540    8.9170   10.9750 C.ar    1  LIG1       -0.3690
     24 H          13.5080    9.4150   10.7650 H       1  LIG1        0.1641
     25 C          14.4740    7.8300   11.8520 C.ar    1  LIG1        0.1709
     26 H          13.5460    7.4990   12.3120 H       1  LIG1        0.0824
     27 O          15.4690   10.4420    9.5340 O.3     1  LIG1       -0.3182
     28 C          16.6400   10.9360    8.8870 C.3     1  LIG1        0.0802
     29 H          16.3430   11.7810    8.2590 H       1  LIG1        0.0602
     30 H          17.0810   10.1740    8.2360 H       1  LIG1        0.0212
     31 H          17.3680   11.3040    9.6180 H       1  LIG1        0.0291
     32 O          17.0900    5.2640   13.1690 O.2     1  LIG1       -0.6809
     33 O          15.2600    6.2920   14.5490 O.2     1  LIG1       -0.6664
     34 N           9.6570    0.9120   11.7690 N.pl3   1  LIG1       -0.8014
     35 H           9.9170    0.1870   11.1160 H       1  LIG1        0.3815
     36 H           8.7230    0.9470   12.1490 H       1  LIG1        0.3702
@<TRIPOS>BOND
     1     1     2   ar
     2     2     3   ar
     3     3     4   ar
     4     4     5   ar
     5     5     6   ar
     6     6     1   ar
     7     6     7    1
     8     7     8    1
     9     7     9    1
    10     5    10   ar
    11    10    11   ar
    12    11    12   ar
    13    12    13    1
    14    12    14   ar
    15    14    15    1
    16    14     4   ar
    17    11    16    1
    18    16    17    1
    19    17    18   ar
    20    18    19    1
    21    18    20   ar
    22    20    21    1
    23    20    22   ar
    24    22    23   ar
    25    23    24    1
    26    23    25   ar
    27    25    26    1
    28    25    17   ar
    29    22    27    1
    30    27    28    1
    31    28    29    1
    32    28    30    1
    33    28    31    1
    34    16    32    2
    35    16    33    2
    36     2    34    1
    37    34    35    1
    38    34    36    1
