@<TRIPOS>MOLECULE
24_2c
 45 47 0 0 0
SMALL
USER_CHARGES
****
From 3DB ct
@<TRIPOS>ATOM
      1 N          10.1230    2.6180   12.7970 N.ar    1  LIG1       -0.7123
      2 C          10.8050    1.9680   11.8660 C.ar    1  LIG1        0.8053
      3 N          12.0860    2.1720   11.6060 N.ar    1  LIG1       -0.7014
      4 C          12.7330    3.0840   12.3120 C.ar    1  LIG1        0.8354
      5 C          12.1430    3.8530   13.3230 C.ar    1  LIG1       -0.8557
      6 C          10.7780    3.5430   13.5150 C.ar    1  LIG1        0.8139
      7 N           9.9810    4.1600   14.4690 N.pl3   1  LIG1       -0.7493
      8 H          10.2560    3.9830   15.4320 H       1  LIG1        0.3190
      9 H           9.8300    5.1550   14.3200 H       1  LIG1        0.3215
     10 C          12.9770    4.8220   14.0070 C.ar    1  LIG1        0.4685
     11 C          14.3340    4.9380   13.6430 C.ar    1  LIG1       -0.4200
     12 C          14.7800    4.1150   12.6220 C.ar    1  LIG1        0.3851
     13 H          15.8110    4.1620   12.2750 H       1  LIG1        0.0927
     14 N          14.0110    3.2130   11.9740 N.ar    1  LIG1       -0.5925
     15 C          15.3180    5.9070   14.2610 C.3     1  LIG1        0.1292
     16 H          15.8050    5.4260   15.1180 H       1  LIG1        0.0616
     17 H          14.7750    6.7760   14.6480 H       1  LIG1        0.0503
     18 N          16.3140    6.2890   13.2760 N.pl3   1  LIG1       -0.4819
     19 H          17.2540    5.9230   13.4220 H       1  LIG1        0.2900
     20 C          16.1070    7.0910   12.1650 C.ar    1  LIG1        0.0004
     21 C          14.8120    7.6140   12.0020 C.ar    1  LIG1       -0.0040
     22 H          14.0340    7.3840   12.7300 H       1  LIG1        0.1036
     23 C          14.4760    8.4300   10.9190 C.ar    1  LIG1       -0.3281
     24 H          13.4610    8.8110   10.8340 H       1  LIG1        0.1567
     25 C          15.4290    8.7500    9.9590 C.ar    1  LIG1        0.2956
     26 C          16.7240    8.2470   10.0940 C.ar    1  LIG1       -0.2979
     27 H          17.4670    8.4940    9.3460 H       1  LIG1        0.1364
     28 C          17.0730    7.4250   11.1850 C.ar    1  LIG1        0.1859
     29 O          18.3370    6.9110   11.3540 O.3     1  LIG1       -0.2422
     30 C          19.3470    7.2740   10.4160 C.3     1  LIG1       -0.0238
     31 H          20.2770    6.7900   10.7280 H       1  LIG1        0.0708
     32 H          19.5170    8.3550   10.4180 H       1  LIG1        0.0448
     33 H          19.1040    6.9080    9.4130 H       1  LIG1        0.0530
     34 O          14.9760    9.5550    8.9500 O.3     1  LIG1       -0.2915
     35 C          15.8800    9.8280    7.8810 C.3     1  LIG1        0.0477
     36 H          15.3650   10.4790    7.1690 H       1  LIG1        0.0583
     37 H          16.1550    8.9080    7.3560 H       1  LIG1        0.0294
     38 H          16.7660   10.3620    8.2410 H       1  LIG1        0.0282
     39 C          12.4090    5.7010   15.0950 C.3     1  LIG1       -0.2019
     40 H          12.0660    5.0920   15.9360 H       1  LIG1        0.0704
     41 H          11.5900    6.3110   14.7010 H       1  LIG1        0.0628
     42 H          13.1310    6.4090   15.5070 H       1  LIG1        0.0429
     43 N          10.1470    1.0320   11.1300 N.pl3   1  LIG1       -0.8074
     44 H          10.6390    0.5170   10.4150 H       1  LIG1        0.3783
     45 H           9.1690    0.8520   11.3090 H       1  LIG1        0.3724
@<TRIPOS>BOND
     1     1     2   ar
     2     2     3   ar
     3     3     4   ar
     4     4     5   ar
     5     5     6   ar
     6     6     1   ar
     7     6     7    1
     8     7     8    1
     9     7     9    1
    10     5    10   ar
    11    10    11   ar
    12    11    12   ar
    13    12    13    1
    14    12    14   ar
    15    14     4   ar
    16    11    15    1
    17    15    16    1
    18    15    17    1
    19    15    18    1
    20    18    19    1
    21    18    20    1
    22    20    21   ar
    23    21    22    1
    24    21    23   ar
    25    23    24    1
    26    23    25   ar
    27    25    26   ar
    28    26    27    1
    29    26    28   ar
    30    28    20   ar
    31    28    29    1
    32    29    30    1
    33    30    31    1
    34    30    32    1
    35    30    33    1
    36    25    34    1
    37    34    35    1
    38    35    36    1
    39    35    37    1
    40    35    38    1
    41    10    39    1
    42    39    40    1
    43    39    41    1
    44    39    42    1
    45     2    43    1
    46    43    44    1
    47    43    45    1
