@<TRIPOS>MOLECULE
24_5b
 47 50 0 0 0
SMALL
USER_CHARGES
****
From 3DB ct
@<TRIPOS>ATOM
      1 N          10.1290    2.6340   12.8050 N.ar    1  LIG1       -0.7178
      2 C          10.7970    1.9830   11.8650 C.ar    1  LIG1        0.8160
      3 N          12.0790    2.1740   11.5980 N.ar    1  LIG1       -0.7049
      4 C          12.7410    3.0750   12.3050 C.ar    1  LIG1        0.8387
      5 C          12.1640    3.8490   13.3190 C.ar    1  LIG1       -0.8803
      6 C          10.7990    3.5480   13.5250 C.ar    1  LIG1        0.8248
      7 N          10.0170    4.1620   14.4930 N.pl3   1  LIG1       -0.7530
      8 H          10.3150    3.9940   15.4510 H       1  LIG1        0.3197
      9 H           9.8470    5.1530   14.3420 H       1  LIG1        0.3222
     10 C          13.0120    4.8120   13.9960 C.ar    1  LIG1        0.4986
     11 C          14.3720    4.8980   13.6430 C.ar    1  LIG1       -0.4222
     12 C          14.8050    4.0690   12.6200 C.ar    1  LIG1        0.4238
     13 H          15.8390    4.0940   12.2790 H       1  LIG1        0.0757
     14 N          14.0200    3.1850   11.9650 N.ar    1  LIG1       -0.5966
     15 C          15.3730    5.8410   14.2700 C.3     1  LIG1       -0.0075
     16 H          15.8990    5.3210   15.0810 H       1  LIG1        0.0900
     17 H          14.8500    6.6840   14.7360 H       1  LIG1        0.0838
     18 N          16.3270    6.2910   13.2690 N.pl3   1  LIG1       -0.4619
     19 H          17.2360    5.8400   13.2930 H       1  LIG1        0.2981
     20 C          16.0170    7.1130   12.1910 C.ar    1  LIG1        0.0939
     21 C          14.7270    7.6410   12.0450 C.ar    1  LIG1       -0.1699
     22 H          13.9390    7.4050   12.7580 H       1  LIG1        0.1269
     23 C          14.3860    8.4760   10.9810 C.ar    1  LIG1       -0.2107
     24 H          13.3630    8.8370   10.9360 H       1  LIG1        0.1267
     25 C          15.3380    8.8190   10.0260 C.ar    1  LIG1        0.2005
     26 C          16.6630    8.3330   10.1430 C.ar    1  LIG1       -0.1103
     27 C          17.0130    7.4840   11.2340 C.ar    1  LIG1        0.1119
     28 C          18.3620    7.0490   11.3100 C.ar    1  LIG1       -0.1855
     29 H          18.7010    6.4170   12.1280 H       1  LIG1        0.1031
     30 C          19.3220    7.4080   10.3600 C.ar    1  LIG1       -0.0803
     31 H          20.3450    7.0490   10.4580 H       1  LIG1        0.1038
     32 C          18.9670    8.2200    9.2980 C.ar    1  LIG1       -0.1259
     33 H          19.7050    8.5010    8.5500 H       1  LIG1        0.1099
     34 C          17.6560    8.6770    9.1940 C.ar    1  LIG1       -0.0451
     35 H          17.4100    9.3200    8.3480 H       1  LIG1        0.0925
     36 O          15.0780    9.6330    8.9480 O.3     1  LIG1       -0.2461
     37 C          13.7840   10.2260    8.8630 C.3     1  LIG1       -0.0129
     38 H          13.7460   10.8050    7.9350 H       1  LIG1        0.0686
     39 H          13.6140   10.9170    9.6950 H       1  LIG1        0.0412
     40 H          13.0030    9.4610    8.8100 H       1  LIG1        0.0479
     41 C          12.4540    5.7160   15.0690 C.3     1  LIG1       -0.2043
     42 H          12.1450    5.1280   15.9380 H       1  LIG1        0.0701
     43 H          11.6120    6.2940   14.6760 H       1  LIG1        0.0601
     44 H          13.1680    6.4590   15.4300 H       1  LIG1        0.0460
     45 N          10.1240    1.0570   11.1300 N.pl3   1  LIG1       -0.8148
     46 H          10.6030    0.5480   10.4010 H       1  LIG1        0.3808
     47 H           9.1440    0.8920   11.3080 H       1  LIG1        0.3747
@<TRIPOS>BOND
     1     1     2   ar
     2     2     3   ar
     3     3     4   ar
     4     4     5   ar
     5     5     6   ar
     6     6     1   ar
     7     6     7    1
     8     7     8    1
     9     7     9    1
    10     5    10   ar
    11    10    11   ar
    12    11    12   ar
    13    12    13    1
    14    12    14   ar
    15    14     4   ar
    16    11    15    1
    17    15    16    1
    18    15    17    1
    19    15    18    1
    20    18    19    1
    21    18    20    1
    22    20    21   ar
    23    21    22    1
    24    21    23   ar
    25    23    24    1
    26    23    25   ar
    27    25    26   ar
    28    26    27   ar
    29    27    20   ar
    30    27    28   ar
    31    28    29    1
    32    28    30   ar
    33    30    31    1
    34    30    32   ar
    35    32    33    1
    36    32    34   ar
    37    34    35    1
    38    34    26   ar
    39    25    36    1
    40    36    37    1
    41    37    38    1
    42    37    39    1
    43    37    40    1
    44    10    41    1
    45    41    42    1
    46    41    43    1
    47    41    44    1
    48     2    45    1
    49    45    46    1
    50    45    47    1
