@<TRIPOS>MOLECULE
25_16
 46 48 0 0 0
SMALL
USER_CHARGES
****
From 3DB ct
@<TRIPOS>ATOM
      1 N          10.1960    2.7110   12.8310 N.ar    1  LIG1       -0.6844
      2 C          10.8330    2.0520   11.8650 C.ar    1  LIG1        0.7685
      3 N          12.1160    2.2140   11.5580 N.ar    1  LIG1       -0.6769
      4 C          12.8120    3.1030   12.2500 C.ar    1  LIG1        0.7168
      5 C          12.2520    3.8530   13.2810 C.ar    1  LIG1       -0.6281
      6 C          10.9080    3.5900   13.5460 C.ar    1  LIG1        0.7444
      7 N          10.1990    4.2700   14.5210 N.pl3   1  LIG1       -0.7634
      8 H          10.6620    4.4810   15.3990 H       1  LIG1        0.3374
      9 H           9.2260    3.9960   14.6160 H       1  LIG1        0.3238
     10 C          13.0630    4.7990   13.9600 C.ar    1  LIG1       -0.0550
     11 H          12.6200    5.3940   14.7550 H       1  LIG1        0.1035
     12 C          14.3990    4.9740   13.6200 C.ar    1  LIG1        0.2118
     13 C          14.8460    4.1610   12.5850 C.ar    1  LIG1        0.2345
     14 H          15.8810    4.2200   12.2500 H       1  LIG1        0.0844
     15 N          14.0910    3.2520   11.9080 N.ar    1  LIG1       -0.5180
     16 N          15.2490    5.8560   14.2460 N.pl3   1  LIG1       -0.7613
     17 H          15.1230    6.0390   15.2400 H       1  LIG1        0.3610
     18 C          16.3780    6.5140   13.6040 C.3     1  LIG1        0.3385
     19 H          17.1560    5.7840   13.3480 H       1  LIG1        0.0181
     20 H          16.8500    7.2220   14.2950 H       1  LIG1        0.0214
     21 C          15.9210    7.2310   12.3450 C.ar    1  LIG1       -0.5149
     22 C          16.8360    7.4840   11.2980 C.ar    1  LIG1        0.3870
     23 C          16.4080    8.1310   10.1320 C.ar    1  LIG1       -0.4393
     24 H          17.1140    8.3360    9.3360 H       1  LIG1        0.1511
     25 C          15.0750    8.5180    9.9910 C.ar    1  LIG1        0.4520
     26 C          14.1670    8.2590   11.0200 C.ar    1  LIG1       -0.5466
     27 H          13.1360    8.5730   10.8740 H       1  LIG1        0.1891
     28 C          14.5740    7.6180   12.1940 C.ar    1  LIG1        0.5174
     29 O          13.7380    7.3290   13.2430 O.3     1  LIG1       -0.2975
     30 C          12.3960    7.8070   13.1720 C.3     1  LIG1        0.0042
     31 H          11.8750    7.4720   14.0750 H       1  LIG1        0.0603
     32 H          11.8720    7.3830   12.3100 H       1  LIG1        0.0566
     33 H          12.3670    8.9020   13.1580 H       1  LIG1        0.0471
     34 O          14.5340    9.1530    8.9050 O.3     1  LIG1       -0.2919
     35 C          15.4110    9.4470    7.8190 C.3     1  LIG1        0.0301
     36 H          14.8230    9.9480    7.0440 H       1  LIG1        0.0678
     37 H          15.8220    8.5290    7.3860 H       1  LIG1        0.0404
     38 H          16.2070   10.1320    8.1300 H       1  LIG1        0.0333
     39 O          18.1270    7.0700   11.5160 O.3     1  LIG1       -0.2032
     40 C          19.1220    7.4650   10.5730 C.3     1  LIG1       -0.0656
     41 H          20.0610    6.9840   10.8620 H       1  LIG1        0.0842
     42 H          19.2790    8.5480   10.6010 H       1  LIG1        0.0582
     43 H          18.8670    7.1230    9.5640 H       1  LIG1        0.0625
     44 N          10.1180    1.1480   11.1400 N.pl3   1  LIG1       -0.7961
     45 H          10.5670    0.6290   10.4000 H       1  LIG1        0.3712
     46 H           9.1410    1.0040   11.3460 H       1  LIG1        0.3654
@<TRIPOS>BOND
     1     1     2   ar
     2     2     3   ar
     3     3     4   ar
     4     4     5   ar
     5     5     6   ar
     6     6     1   ar
     7     6     7    1
     8     7     8    1
     9     7     9    1
    10     5    10   ar
    11    10    11    1
    12    10    12   ar
    13    12    13   ar
    14    13    14    1
    15    13    15   ar
    16    15     4   ar
    17    12    16    1
    18    16    17    1
    19    16    18    1
    20    18    19    1
    21    18    20    1
    22    18    21    1
    23    21    22   ar
    24    22    23   ar
    25    23    24    1
    26    23    25   ar
    27    25    26   ar
    28    26    27    1
    29    26    28   ar
    30    28    21   ar
    31    28    29    1
    32    29    30    1
    33    30    31    1
    34    30    32    1
    35    30    33    1
    36    25    34    1
    37    34    35    1
    38    35    36    1
    39    35    37    1
    40    35    38    1
    41    22    39    1
    42    39    40    1
    43    40    41    1
    44    40    42    1
    45    40    43    1
    46     2    44    1
    47    44    45    1
    48    44    46    1
