@<TRIPOS>MOLECULE
25_11
 46 48 0 0 0
SMALL
USER_CHARGES
****
From 3DB ct
@<TRIPOS>ATOM
      1 N          10.2060    2.7450   12.8660 N.ar    1  LIG1       -0.6704
      2 C          10.8050    2.0620   11.8930 C.ar    1  LIG1        0.7601
      3 N          12.0850    2.1920   11.5560 N.ar    1  LIG1       -0.6793
      4 C          12.8180    3.0690   12.2260 C.ar    1  LIG1        0.7456
      5 C          12.2990    3.8380   13.2620 C.ar    1  LIG1       -0.6354
      6 C          10.9550    3.6120   13.5580 C.ar    1  LIG1        0.7230
      7 N          10.2840    4.3190   14.5400 N.pl3   1  LIG1       -0.7486
      8 H          10.7720    4.5310   15.4050 H       1  LIG1        0.3346
      9 H           9.3060    4.0710   14.6590 H       1  LIG1        0.3218
     10 C          13.1500    4.7660   13.9150 C.ar    1  LIG1        0.0145
     11 H          12.7520    5.3810   14.7200 H       1  LIG1        0.0890
     12 C          14.4830    4.9070   13.5440 C.ar    1  LIG1        0.0600
     13 C          14.8880    4.0810   12.5030 C.ar    1  LIG1        0.2847
     14 H          15.9100    4.1070   12.1320 H       1  LIG1        0.0801
     15 N          14.0930    3.1860   11.8540 N.ar    1  LIG1       -0.5382
     16 N          15.2840    5.8140   14.1980 N.pl3   1  LIG1       -0.6393
     17 H          15.1000    6.0180   15.1780 H       1  LIG1        0.3441
     18 C          16.3970    6.5130   13.5800 C.3     1  LIG1        0.1465
     19 H          17.1960    5.8100   13.3150 H       1  LIG1        0.0423
     20 H          16.8260    7.2470   14.2740 H       1  LIG1        0.0500
     21 C          15.9200    7.2230   12.3340 C.ar    1  LIG1        0.0168
     22 C          16.8150    7.5160   11.2950 C.ar    1  LIG1       -0.3310
     23 H          17.8660    7.2480   11.3860 H       1  LIG1        0.1653
     24 C          16.3610    8.1550   10.1400 C.ar    1  LIG1        0.2942
     25 C          15.0210    8.5390   10.0160 C.ar    1  LIG1       -0.1008
     26 C          14.1090    8.1950   11.0210 C.ar    1  LIG1        0.2467
     27 C          14.5650    7.5610   12.1810 C.ar    1  LIG1       -0.2179
     28 H          13.8550    7.3170   12.9720 H       1  LIG1        0.1536
     29 O          12.7720    8.4940   10.9950 O.3     1  LIG1       -0.3045
     30 C          12.3680    9.1790    9.8060 C.3     1  LIG1        0.1027
     31 H          11.3240    8.9160    9.6110 H       1  LIG1        0.0315
     32 H          12.9570    8.8830    8.9290 H       1  LIG1        0.0327
     33 H          12.4150   10.2610    9.9580 H       1  LIG1        0.0278
     34 O          14.6170    9.2190    8.8960 O.3     1  LIG1       -0.1961
     35 C          15.7000    9.3000    7.9620 C.3     1  LIG1       -0.0455
     36 H          15.3420    9.8450    7.0830 H       1  LIG1        0.0651
     37 H          16.0200    8.3040    7.6380 H       1  LIG1        0.0584
     38 H          16.5460    9.8540    8.3830 H       1  LIG1        0.0589
     39 O          17.2810    8.4680    9.1710 O.3     1  LIG1       -0.2250
     40 C          18.5860    8.0510    9.5850 C.3     1  LIG1       -0.0709
     41 H          19.2950    8.3520    8.8080 H       1  LIG1        0.0892
     42 H          18.6410    6.9620    9.6910 H       1  LIG1        0.0587
     43 H          18.8790    8.5410   10.5210 H       1  LIG1        0.0591
     44 N          10.0540    1.1690   11.1940 N.pl3   1  LIG1       -0.7898
     45 H          10.4730    0.6320   10.4490 H       1  LIG1        0.3720
     46 H           9.0790    1.0470   11.4250 H       1  LIG1        0.3639
@<TRIPOS>BOND
     1     1     2   ar
     2     2     3   ar
     3     3     4   ar
     4     4     5   ar
     5     5     6   ar
     6     6     1   ar
     7     6     7    1
     8     7     8    1
     9     7     9    1
    10     5    10   ar
    11    10    11    1
    12    10    12   ar
    13    12    13   ar
    14    13    14    1
    15    13    15   ar
    16    15     4   ar
    17    12    16    1
    18    16    17    1
    19    16    18    1
    20    18    19    1
    21    18    20    1
    22    18    21    1
    23    21    22   ar
    24    22    23    1
    25    22    24   ar
    26    24    25   ar
    27    25    26   ar
    28    26    27   ar
    29    27    28    1
    30    27    21   ar
    31    26    29    1
    32    29    30    1
    33    30    31    1
    34    30    32    1
    35    30    33    1
    36    25    34    1
    37    34    35    1
    38    35    36    1
    39    35    37    1
    40    35    38    1
    41    24    39    1
    42    39    40    1
    43    40    41    1
    44    40    42    1
    45    40    43    1
    46     2    44    1
    47    44    45    1
    48    44    46    1
