@<TRIPOS>MOLECULE
25_14
 46 48 0 0 0
SMALL
USER_CHARGES
****
From 3DB ct
@<TRIPOS>ATOM
      1 N          10.2070    2.7480   12.8550 N.ar    1  LIG1       -0.6676
      2 C          10.8120    2.0750   11.8790 C.ar    1  LIG1        0.7557
      3 N          12.0940    2.2070   11.5520 N.ar    1  LIG1       -0.6767
      4 C          12.8230    3.0760   12.2350 C.ar    1  LIG1        0.7505
      5 C          12.2980    3.8350   13.2760 C.ar    1  LIG1       -0.6394
      6 C          10.9510    3.6080   13.5610 C.ar    1  LIG1        0.7202
      7 N          10.2750    4.3060   14.5450 N.pl3   1  LIG1       -0.7496
      8 H          10.7570    4.5100   15.4140 H       1  LIG1        0.3346
      9 H           9.2960    4.0570   14.6550 H       1  LIG1        0.3211
     10 C          13.1460    4.7540   13.9450 C.ar    1  LIG1        0.0300
     11 H          12.7450    5.3590   14.7570 H       1  LIG1        0.0864
     12 C          14.4810    4.9000   13.5820 C.ar    1  LIG1        0.0058
     13 C          14.8930    4.0800   12.5400 C.ar    1  LIG1        0.3207
     14 H          15.9190    4.1050   12.1780 H       1  LIG1        0.0787
     15 N          14.1010    3.1940   11.8750 N.ar    1  LIG1       -0.5509
     16 N          15.2830    5.7850   14.2650 N.pl3   1  LIG1       -0.5883
     17 H          15.0680    5.9910   15.2380 H       1  LIG1        0.3289
     18 C          16.3620    6.5460   13.6540 C.3     1  LIG1        0.1340
     19 H          17.2030    5.8840   13.4110 H       1  LIG1        0.0532
     20 H          16.7460    7.3000   14.3520 H       1  LIG1        0.0514
     21 C          15.8720    7.2080   12.3880 C.ar    1  LIG1       -0.1363
     22 C          14.5180    7.5580   12.2730 C.ar    1  LIG1       -0.0156
     23 H          13.8320    7.3570   13.0970 H       1  LIG1        0.1218
     24 C          14.0190    8.1480   11.1060 C.ar    1  LIG1       -0.2833
     25 H          12.9560    8.3740   11.0760 H       1  LIG1        0.1537
     26 C          14.8630    8.4090   10.0230 C.ar    1  LIG1        0.2594
     27 C          16.2320    8.1050   10.1430 C.ar    1  LIG1        0.0172
     28 C          16.7280    7.5110   11.3180 C.ar    1  LIG1        0.1163
     29 O          18.0520    7.1490   11.3950 O.3     1  LIG1       -0.2335
     30 C          18.2310    5.8040   10.9370 C.3     1  LIG1        0.0055
     31 H          19.3060    5.6280   10.8350 H       1  LIG1        0.0573
     32 H          17.7660    5.6400    9.9590 H       1  LIG1        0.0502
     33 H          17.8390    5.0890   11.6660 H       1  LIG1        0.0566
     34 O          17.1210    8.2880    9.1070 O.3     1  LIG1       -0.2743
     35 C          18.4560    7.9110    9.4580 C.3     1  LIG1        0.0317
     36 H          18.9370    7.5190    8.5570 H       1  LIG1        0.0675
     37 H          18.4890    7.1280   10.2250 H       1  LIG1        0.0346
     38 H          19.0220    8.7900    9.7810 H       1  LIG1        0.0328
     39 O          14.4450    8.9190    8.8230 O.3     1  LIG1       -0.2937
     40 C          15.4340    9.1280    7.8160 C.3     1  LIG1        0.0878
     41 H          14.9280    9.5290    6.9330 H       1  LIG1        0.0373
     42 H          15.9090    8.1840    7.5290 H       1  LIG1        0.0302
     43 H          16.1750    9.8660    8.1390 H       1  LIG1        0.0320
     44 N          10.0660    1.1880   11.1670 N.pl3   1  LIG1       -0.7885
     45 H          10.4910    0.6580   10.4200 H       1  LIG1        0.3713
     46 H           9.0890    1.0640   11.3900 H       1  LIG1        0.3631
@<TRIPOS>BOND
     1     1     2   ar
     2     2     3   ar
     3     3     4   ar
     4     4     5   ar
     5     5     6   ar
     6     6     1   ar
     7     6     7    1
     8     7     8    1
     9     7     9    1
    10     5    10   ar
    11    10    11    1
    12    10    12   ar
    13    12    13   ar
    14    13    14    1
    15    13    15   ar
    16    15     4   ar
    17    12    16    1
    18    16    17    1
    19    16    18    1
    20    18    19    1
    21    18    20    1
    22    18    21    1
    23    21    22   ar
    24    22    23    1
    25    22    24   ar
    26    24    25    1
    27    24    26   ar
    28    26    27   ar
    29    27    28   ar
    30    28    21   ar
    31    28    29    1
    32    29    30    1
    33    30    31    1
    34    30    32    1
    35    30    33    1
    36    27    34    1
    37    34    35    1
    38    35    36    1
    39    35    37    1
    40    35    38    1
    41    26    39    1
    42    39    40    1
    43    40    41    1
    44    40    42    1
    45    40    43    1
    46     2    44    1
    47    44    45    1
    48    44    46    1
