@<TRIPOS>MOLECULE
25_19
 42 44 0 0 0
SMALL
USER_CHARGES
****
From 3DB ct
@<TRIPOS>ATOM
      1 N          10.2020    2.7450   12.8480 N.ar    1  LIG1       -0.6701
      2 C          10.8120    2.0750   11.8730 C.ar    1  LIG1        0.7619
      3 N          12.0960    2.2080   11.5540 N.ar    1  LIG1       -0.6801
      4 C          12.8220    3.0740   12.2460 C.ar    1  LIG1        0.7437
      5 C          12.2910    3.8300   13.2860 C.ar    1  LIG1       -0.6267
      6 C          10.9430    3.6010   13.5620 C.ar    1  LIG1        0.7169
      7 N          10.2610    4.2930   14.5460 N.pl3   1  LIG1       -0.7423
      8 H          10.7350    4.4820   15.4240 H       1  LIG1        0.3322
      9 H           9.2810    4.0430   14.6460 H       1  LIG1        0.3194
     10 C          13.1330    4.7510   13.9640 C.ar    1  LIG1        0.0039
     11 H          12.7120    5.3510   14.7670 H       1  LIG1        0.0880
     12 C          14.4690    4.8950   13.6120 C.ar    1  LIG1        0.0823
     13 C          14.8850    4.0810   12.5640 C.ar    1  LIG1        0.2703
     14 H          15.9140    4.1240   12.2120 H       1  LIG1        0.0847
     15 N          14.1010    3.1940   11.8920 N.ar    1  LIG1       -0.5344
     16 N          15.3390    5.7740   14.2150 N.pl3   1  LIG1       -0.6476
     17 H          15.1930    6.0190   15.1930 H       1  LIG1        0.3494
     18 C          16.4430    6.4320   13.5360 C.3     1  LIG1        0.1322
     19 H          17.1930    5.6950   13.2240 H       1  LIG1        0.0446
     20 H          16.9420    7.1430   14.2070 H       1  LIG1        0.0503
     21 C          15.9270    7.1810   12.3280 C.ar    1  LIG1        0.1020
     22 C          16.7920    7.5240   11.2790 C.ar    1  LIG1       -0.3680
     23 H          17.8460    7.2540   11.3370 H       1  LIG1        0.1507
     24 C          16.3220    8.2080   10.1560 C.ar    1  LIG1        0.3900
     25 C          14.9700    8.5460   10.0790 C.ar    1  LIG1       -0.4244
     26 H          14.5680    9.0770    9.2210 H       1  LIG1        0.1574
     27 C          14.0880    8.1990   11.1090 C.ar    1  LIG1        0.4065
     28 C          14.5670    7.5170   12.2290 C.ar    1  LIG1       -0.3498
     29 H          13.9080    7.2300   13.0440 H       1  LIG1        0.1636
     30 O          12.7900    8.5840   10.9010 O.3     1  LIG1       -0.3141
     31 C          12.5000    9.2240    9.6590 C.3     1  LIG1        0.0611
     32 H          11.4370    9.4840    9.6610 H       1  LIG1        0.0543
     33 H          12.6770    8.5470    8.8180 H       1  LIG1        0.0372
     34 H          13.0720   10.1520    9.5520 H       1  LIG1        0.0341
     35 O          17.2750    8.4860    9.2140 O.3     1  LIG1       -0.2908
     36 C          18.6110    8.0830    9.5110 C.3     1  LIG1        0.0251
     37 H          19.2420    8.3740    8.6660 H       1  LIG1        0.0658
     38 H          18.6780    6.9960    9.6200 H       1  LIG1        0.0432
     39 H          18.9870    8.5960   10.4020 H       1  LIG1        0.0335
     40 N          10.0680    1.1940   11.1520 N.pl3   1  LIG1       -0.7939
     41 H          10.4930    0.6690   10.4020 H       1  LIG1        0.3735
     42 H           9.0900    1.0700   11.3710 H       1  LIG1        0.3644
@<TRIPOS>BOND
     1     1     2   ar
     2     2     3   ar
     3     3     4   ar
     4     4     5   ar
     5     5     6   ar
     6     6     1   ar
     7     6     7    1
     8     7     8    1
     9     7     9    1
    10     5    10   ar
    11    10    11    1
    12    10    12   ar
    13    12    13   ar
    14    13    14    1
    15    13    15   ar
    16    15     4   ar
    17    12    16    1
    18    16    17    1
    19    16    18    1
    20    18    19    1
    21    18    20    1
    22    18    21    1
    23    21    22   ar
    24    22    23    1
    25    22    24   ar
    26    24    25   ar
    27    25    26    1
    28    25    27   ar
    29    27    28   ar
    30    28    29    1
    31    28    21   ar
    32    27    30    1
    33    30    31    1
    34    31    32    1
    35    31    33    1
    36    31    34    1
    37    24    35    1
    38    35    36    1
    39    36    37    1
    40    36    38    1
    41    36    39    1
    42     2    40    1
    43    40    41    1
    44    40    42    1
