@<TRIPOS>MOLECULE
25_24
 44 47 0 0 0
SMALL
USER_CHARGES
****
From 3DB ct
@<TRIPOS>ATOM
      1 N          10.2000    2.7330   12.8410 N.ar    1  LIG1       -0.6738
      2 C          10.8200    2.0660   11.8710 C.ar    1  LIG1        0.7660
      3 N          12.1040    2.2100   11.5560 N.ar    1  LIG1       -0.6860
      4 C          12.8180    3.0850   12.2480 C.ar    1  LIG1        0.7627
      5 C          12.2770    3.8380   13.2850 C.ar    1  LIG1       -0.6647
      6 C          10.9300    3.5980   13.5560 C.ar    1  LIG1        0.7310
      7 N          10.2380    4.2860   14.5360 N.pl3   1  LIG1       -0.7534
      8 H          10.7070    4.4830   15.4140 H       1  LIG1        0.3358
      9 H           9.2590    4.0290   14.6320 H       1  LIG1        0.3223
     10 C          13.1080    4.7680   13.9650 C.ar    1  LIG1        0.0482
     11 H          12.6790    5.3640   14.7650 H       1  LIG1        0.0813
     12 C          14.4430    4.9250   13.6150 C.ar    1  LIG1        0.0435
     13 C          14.8710    4.1110   12.5720 C.ar    1  LIG1        0.2836
     14 H          15.9030    4.1590   12.2270 H       1  LIG1        0.0835
     15 N          14.0980    3.2160   11.8980 N.ar    1  LIG1       -0.5409
     16 N          15.3070    5.8000   14.2310 N.pl3   1  LIG1       -0.6769
     17 H          15.1650    6.0210   15.2150 H       1  LIG1        0.3526
     18 C          16.4410    6.4340   13.5800 C.3     1  LIG1        0.2055
     19 H          17.2170    5.7030   13.3230 H       1  LIG1        0.0451
     20 H          16.9100    7.1500   14.2670 H       1  LIG1        0.0281
     21 C          15.9850    7.1580   12.3250 C.ar    1  LIG1       -0.0810
     22 C          14.6230    7.4870   12.2220 C.ar    1  LIG1       -0.0572
     23 H          13.9330    7.2210   13.0230 H       1  LIG1        0.1196
     24 C          14.1260    8.1560   11.1070 C.ar    1  LIG1       -0.2480
     25 H          13.0640    8.3840   11.0910 H       1  LIG1        0.1617
     26 C          14.9800    8.5080   10.0610 C.ar    1  LIG1        0.1433
     27 C          16.3590    8.1770   10.1250 C.ar    1  LIG1        0.0564
     28 C          16.8690    7.4910   11.2620 C.ar    1  LIG1       -0.0047
     29 C          18.2470    7.1660   11.2800 C.ar    1  LIG1       -0.1265
     30 H          18.6830    6.6270   12.1200 H       1  LIG1        0.0909
     31 C          19.1030    7.5080   10.2320 C.ar    1  LIG1       -0.0792
     32 H          20.1570    7.2410   10.2800 H       1  LIG1        0.1063
     33 C          18.6050    8.1830    9.1300 C.ar    1  LIG1       -0.1217
     34 H          19.2640    8.4530    8.3070 H       1  LIG1        0.1114
     35 C          17.2510    8.5110    9.0790 C.ar    1  LIG1       -0.1140
     36 H          16.8900    9.0390    8.1960 H       1  LIG1        0.1190
     37 O          14.5650    9.1720    8.9300 O.3     1  LIG1       -0.2992
     38 C          14.1320    8.3850    7.8220 C.3     1  LIG1        0.1152
     39 H          13.8290    9.0710    7.0250 H       1  LIG1        0.0370
     40 H          13.2600    7.7780    8.0870 H       1  LIG1        0.0108
     41 H          14.9480    7.7660    7.4360 H       1  LIG1        0.0228
     42 N          10.0880    1.1750   11.1490 N.pl3   1  LIG1       -0.7941
     43 H          10.5240    0.6500   10.4050 H       1  LIG1        0.3735
     44 H           9.1100    1.0420   11.3630 H       1  LIG1        0.3645
@<TRIPOS>BOND
     1     1     2   ar
     2     2     3   ar
     3     3     4   ar
     4     4     5   ar
     5     5     6   ar
     6     6     1   ar
     7     6     7    1
     8     7     8    1
     9     7     9    1
    10     5    10   ar
    11    10    11    1
    12    10    12   ar
    13    12    13   ar
    14    13    14    1
    15    13    15   ar
    16    15     4   ar
    17    12    16    1
    18    16    17    1
    19    16    18    1
    20    18    19    1
    21    18    20    1
    22    18    21    1
    23    21    22   ar
    24    22    23    1
    25    22    24   ar
    26    24    25    1
    27    24    26   ar
    28    26    27   ar
    29    27    28   ar
    30    28    21   ar
    31    28    29   ar
    32    29    30    1
    33    29    31   ar
    34    31    32    1
    35    31    33   ar
    36    33    34    1
    37    33    35   ar
    38    35    36    1
    39    35    27   ar
    40    26    37    1
    41    37    38    1
    42    38    39    1
    43    38    40    1
    44    38    41    1
    45     2    42    1
    46    42    43    1
    47    42    44    1
