@<TRIPOS>MOLECULE
25_23
 40 43 0 0 0
SMALL
USER_CHARGES
****
From 3DB ct
@<TRIPOS>ATOM
      1 N          10.2060    2.7640   12.8660 N.ar    1  LIG1       -0.6723
      2 C          10.7940    2.0830   11.8860 C.ar    1  LIG1        0.7655
      3 N          12.0760    2.1950   11.5510 N.ar    1  LIG1       -0.6852
      4 C          12.8230    3.0520   12.2310 C.ar    1  LIG1        0.7594
      5 C          12.3160    3.8170   13.2750 C.ar    1  LIG1       -0.6567
      6 C          10.9680    3.6110   13.5690 C.ar    1  LIG1        0.7249
      7 N          10.3090    4.3180   14.5580 N.pl3   1  LIG1       -0.7496
      8 H          10.8000    4.5130   15.4250 H       1  LIG1        0.3341
      9 H           9.3270    4.0850   14.6740 H       1  LIG1        0.3211
     10 C          13.1820    4.7240   13.9400 C.ar    1  LIG1        0.0451
     11 H          12.7940    5.3380   14.7500 H       1  LIG1        0.0801
     12 C          14.5170    4.8470   13.5710 C.ar    1  LIG1        0.0341
     13 C          14.9090    4.0270   12.5210 C.ar    1  LIG1        0.2879
     14 H          15.9310    4.0410   12.1500 H       1  LIG1        0.0831
     15 N          14.1000    3.1530   11.8610 N.ar    1  LIG1       -0.5387
     16 N          15.3310    5.7360   14.2330 N.pl3   1  LIG1       -0.6426
     17 H          15.2010    5.8750   15.2330 H       1  LIG1        0.3487
     18 C          16.3940    6.5000   13.6020 C.3     1  LIG1        0.1217
     19 H          17.2370    5.8560   13.3220 H       1  LIG1        0.0648
     20 H          16.7930    7.2370   14.3100 H       1  LIG1        0.0471
     21 C          15.8640    7.2120   12.3710 C.ar    1  LIG1       -0.0413
     22 C          14.4930    7.5280   12.3330 C.ar    1  LIG1       -0.0825
     23 H          13.8450    7.2600   13.1680 H       1  LIG1        0.1153
     24 C          13.9410    8.1830   11.2380 C.ar    1  LIG1       -0.1203
     25 H          12.8790    8.4250   11.2250 H       1  LIG1        0.1156
     26 C          14.7480    8.5300   10.1590 C.ar    1  LIG1       -0.1918
     27 H          14.2950    9.0450    9.3120 H       1  LIG1        0.1300
     28 C          16.1160    8.2200   10.1550 C.ar    1  LIG1        0.1670
     29 C          16.6950    7.5480   11.2630 C.ar    1  LIG1       -0.0396
     30 C          18.0760    7.2490   11.1940 C.ar    1  LIG1       -0.1065
     31 H          18.5740    6.7210   12.0060 H       1  LIG1        0.0929
     32 C          18.8520    7.6050   10.0880 C.ar    1  LIG1       -0.1152
     33 H          19.9130    7.3600   10.0660 H       1  LIG1        0.1103
     34 C          18.2690    8.2690    9.0170 C.ar    1  LIG1       -0.0657
     35 H          18.8700    8.5480    8.1530 H       1  LIG1        0.1014
     36 C          16.9100    8.5720    9.0500 C.ar    1  LIG1       -0.2125
     37 H          16.4700    9.0900    8.1970 H       1  LIG1        0.1269
     38 N          10.0290    1.2090   11.1770 N.pl3   1  LIG1       -0.7953
     39 H          10.4400    0.6740   10.4270 H       1  LIG1        0.3744
     40 H           9.0520    1.1010   11.4070 H       1  LIG1        0.3646
@<TRIPOS>BOND
     1     1     2   ar
     2     2     3   ar
     3     3     4   ar
     4     4     5   ar
     5     5     6   ar
     6     6     1   ar
     7     6     7    1
     8     7     8    1
     9     7     9    1
    10     5    10   ar
    11    10    11    1
    12    10    12   ar
    13    12    13   ar
    14    13    14    1
    15    13    15   ar
    16    15     4   ar
    17    12    16    1
    18    16    17    1
    19    16    18    1
    20    18    19    1
    21    18    20    1
    22    18    21    1
    23    21    22   ar
    24    22    23    1
    25    22    24   ar
    26    24    25    1
    27    24    26   ar
    28    26    27    1
    29    26    28   ar
    30    28    29   ar
    31    29    21   ar
    32    29    30   ar
    33    30    31    1
    34    30    32   ar
    35    32    33    1
    36    32    34   ar
    37    34    35    1
    38    34    36   ar
    39    36    37    1
    40    36    28   ar
    41     2    38    1
    42    38    39    1
    43    38    40    1
