@<TRIPOS>MOLECULE
26_10
 51 54 0 0 0
SMALL
USER_CHARGES
****
From 3DB ct
@<TRIPOS>ATOM
      1 N          10.1220    2.6260   12.7980 N.ar    1  LIG1       -0.7144
      2 C          10.8000    1.9660   11.8720 C.ar    1  LIG1        0.8154
      3 N          12.0820    2.1670   11.6050 N.ar    1  LIG1       -0.7039
      4 C          12.7330    3.0800   12.3050 C.ar    1  LIG1        0.8285
      5 C          12.1500    3.8500   13.3190 C.ar    1  LIG1       -0.8673
      6 C          10.7810    3.5530   13.5100 C.ar    1  LIG1        0.8097
      7 N           9.9840    4.1890   14.4500 N.pl3   1  LIG1       -0.7445
      8 H          10.2460    4.0200   15.4180 H       1  LIG1        0.3181
      9 H           9.8440    5.1840   14.2900 H       1  LIG1        0.3213
     10 C          12.9930    4.8090   14.0070 C.ar    1  LIG1        0.5262
     11 C          14.3460    4.9280   13.6320 C.ar    1  LIG1       -0.4804
     12 C          14.7840    4.1090   12.6040 C.ar    1  LIG1        0.3983
     13 H          15.8140    4.1520   12.2520 H       1  LIG1        0.0851
     14 N          14.0100    3.2080   11.9600 N.ar    1  LIG1       -0.5931
     15 C          15.3370    5.8870   14.2570 C.3     1  LIG1        0.3048
     16 H          15.8350    5.3960   15.1020 H       1  LIG1        0.0150
     17 H          14.7870    6.7440   14.6620 H       1  LIG1        0.0234
     18 N          16.3230    6.2930   13.2730 N.pl3   1  LIG1       -0.6799
     19 H          17.2700    5.9480   13.4160 H       1  LIG1        0.3355
     20 C          16.0920    7.0960   12.1640 C.ar    1  LIG1        0.3260
     21 C          17.1830    7.2840   11.2870 C.ar    1  LIG1       -0.2748
     22 H          18.1360    6.8150   11.5350 H       1  LIG1        0.1256
     23 C          17.1030    8.0520   10.1110 C.ar    1  LIG1        0.0333
     24 C          15.8750    8.6520    9.8190 C.ar    1  LIG1       -0.1469
     25 H          15.7520    9.2480    8.9150 H       1  LIG1        0.1127
     26 C          14.7740    8.4890   10.6650 C.ar    1  LIG1       -0.1602
     27 H          13.8510    8.9820   10.3730 H       1  LIG1        0.1384
     28 C          14.8670    7.7180   11.8330 C.ar    1  LIG1        0.0348
     29 O          13.8120    7.5370   12.6920 O.3     1  LIG1       -0.2301
     30 C          12.5550    8.1080   12.3390 C.3     1  LIG1       -0.0468
     31 H          11.8480    7.8760   13.1410 H       1  LIG1        0.0563
     32 H          12.1680    7.6650   11.4150 H       1  LIG1        0.0688
     33 H          12.6240    9.1980   12.2620 H       1  LIG1        0.0531
     34 C          18.2660    8.2120    9.2170 C.ar    1  LIG1        0.0354
     35 C          19.0350    7.1040    8.8200 C.ar    1  LIG1       -0.1095
     36 H          18.7770    6.1030    9.1650 H       1  LIG1        0.1110
     37 C          20.1330    7.2530    7.9670 C.ar    1  LIG1       -0.1252
     38 H          20.7110    6.3790    7.6710 H       1  LIG1        0.1091
     39 C          20.4820    8.5140    7.4940 C.ar    1  LIG1       -0.0885
     40 H          21.3360    8.6310    6.8290 H       1  LIG1        0.1004
     41 C          19.7370    9.6270    7.8740 C.ar    1  LIG1       -0.1164
     42 H          20.0080   10.6160    7.5080 H       1  LIG1        0.1046
     43 C          18.6390    9.4760    8.7270 C.ar    1  LIG1       -0.1043
     44 H          18.0790   10.3660    9.0150 H       1  LIG1        0.1025
     45 C          12.4380    5.6750   15.1120 C.3     1  LIG1       -0.2570
     46 H          12.0690    5.0520   15.9320 H       1  LIG1        0.0750
     47 H          11.6400    6.3160   14.7260 H       1  LIG1        0.0798
     48 H          13.1760    6.3460   15.5550 H       1  LIG1        0.0574
     49 N          10.1380    1.0200   11.1510 N.pl3   1  LIG1       -0.8199
     50 H          10.6260    0.4930   10.4420 H       1  LIG1        0.3812
     51 H           9.1620    0.8430   11.3400 H       1  LIG1        0.3759
@<TRIPOS>BOND
     1     1     2   ar
     2     2     3   ar
     3     3     4   ar
     4     4     5   ar
     5     5     6   ar
     6     6     1   ar
     7     6     7    1
     8     7     8    1
     9     7     9    1
    10     5    10   ar
    11    10    11   ar
    12    11    12   ar
    13    12    13    1
    14    12    14   ar
    15    14     4   ar
    16    11    15    1
    17    15    16    1
    18    15    17    1
    19    15    18    1
    20    18    19    1
    21    18    20    1
    22    20    21   ar
    23    21    22    1
    24    21    23   ar
    25    23    24   ar
    26    24    25    1
    27    24    26   ar
    28    26    27    1
    29    26    28   ar
    30    28    20   ar
    31    28    29    1
    32    29    30    1
    33    30    31    1
    34    30    32    1
    35    30    33    1
    36    23    34    1
    37    34    35   ar
    38    35    36    1
    39    35    37   ar
    40    37    38    1
    41    37    39   ar
    42    39    40    1
    43    39    41   ar
    44    41    42    1
    45    41    43   ar
    46    43    44    1
    47    43    34   ar
    48    10    45    1
    49    45    46    1
    50    45    47    1
    51    45    48    1
    52     2    49    1
    53    49    50    1
    54    49    51    1
