@<TRIPOS>MOLECULE
26_8
 53 56 0 0 0
SMALL
USER_CHARGES
****
From 3DB ct
@<TRIPOS>ATOM
      1 N          10.1380    2.6450   12.8050 N.ar    1  LIG1       -0.7154
      2 C          10.8070    1.9850   11.8710 C.ar    1  LIG1        0.8099
      3 N          12.0880    2.1770   11.6010 N.ar    1  LIG1       -0.7005
      4 C          12.7500    3.0810   12.3030 C.ar    1  LIG1        0.8270
      5 C          12.1760    3.8550   13.3190 C.ar    1  LIG1       -0.8521
      6 C          10.8080    3.5640   13.5180 C.ar    1  LIG1        0.8186
      7 N          10.0220    4.1970   14.4700 N.pl3   1  LIG1       -0.7526
      8 H           9.8710    5.1900   14.3100 H       1  LIG1        0.3232
      9 H          10.3000    4.0310   15.4340 H       1  LIG1        0.3208
     10 C          13.0280    4.8080   14.0040 C.ar    1  LIG1        0.4916
     11 C          14.3850    4.9040   13.6370 C.ar    1  LIG1       -0.4466
     12 C          14.8130    4.0820   12.6080 C.ar    1  LIG1        0.4273
     13 H          15.8440    4.1130   12.2590 H       1  LIG1        0.0623
     14 N          14.0280    3.1950   11.9570 N.ar    1  LIG1       -0.5928
     15 C          15.3870    5.8440   14.2650 C.3     1  LIG1        0.0675
     16 H          15.9270    5.3290   15.0700 H       1  LIG1        0.0773
     17 H          14.8540    6.6790   14.7350 H       1  LIG1        0.0538
     18 N          16.3300    6.3070   13.2600 N.pl3   1  LIG1       -0.4631
     19 H          17.3100    6.2640   13.5300 H       1  LIG1        0.2850
     20 C          16.0070    7.0720   12.1480 C.ar    1  LIG1        0.2348
     21 C          14.7060    7.6080   12.0050 C.ar    1  LIG1       -0.1978
     22 H          13.9610    7.3720   12.7590 H       1  LIG1        0.1348
     23 C          14.3560    8.4630   10.9540 C.ar    1  LIG1        0.1078
     24 C          15.3350    8.8050   10.0220 C.ar    1  LIG1        0.1429
     25 C          16.6100    8.2460   10.0850 C.ar    1  LIG1       -0.1579
     26 H          17.3060    8.4750    9.2820 H       1  LIG1        0.1373
     27 C          16.9470    7.3560   11.1230 C.ar    1  LIG1       -0.1584
     28 N          18.2410    6.7450   11.0610 N.ar    1  LIG1        0.1533
     29 C          19.3750    7.2930   10.4810 C.ar    1  LIG1       -0.2405
     30 H          19.3630    8.2940   10.0700 H       1  LIG1        0.1779
     31 C          20.4220    6.4040   10.5890 C.ar    1  LIG1       -0.1667
     32 H          21.4330    6.5720   10.2360 H       1  LIG1        0.1402
     33 C          19.9250    5.2510   11.2270 C.ar    1  LIG1       -0.1915
     34 H          20.4690    4.3420   11.4540 H       1  LIG1        0.1462
     35 C          18.5910    5.4760   11.4890 C.ar    1  LIG1       -0.2252
     36 H          17.8520    4.8090   11.9110 H       1  LIG1        0.1796
     37 O          15.0360    9.6240    8.9610 O.3     1  LIG1       -0.2204
     38 C          16.1250    9.6250    8.0300 C.3     1  LIG1       -0.0593
     39 H          15.8620   10.3020    7.2120 H       1  LIG1        0.0811
     40 H          16.2830    8.6260    7.6080 H       1  LIG1        0.0578
     41 H          17.0450    9.9930    8.4950 H       1  LIG1        0.0584
     42 O          13.1190    9.0200   10.7620 O.3     1  LIG1       -0.2761
     43 C          12.9460    9.8470    9.6140 C.3     1  LIG1        0.0936
     44 H          11.9340   10.2610    9.6530 H       1  LIG1        0.0345
     45 H          13.0300    9.2610    8.6930 H       1  LIG1        0.0302
     46 H          13.6500   10.6850    9.6200 H       1  LIG1        0.0221
     47 C          12.4800    5.6900   15.0990 C.3     1  LIG1       -0.2205
     48 H          13.2160    6.3820   15.5140 H       1  LIG1        0.0524
     49 H          12.1290    5.0810   15.9370 H       1  LIG1        0.0723
     50 H          11.6700    6.3150   14.7110 H       1  LIG1        0.0713
     51 N          10.1340    1.0500   11.1470 N.pl3   1  LIG1       -0.8090
     52 H          10.6140    0.5290   10.4280 H       1  LIG1        0.3799
     53 H           9.1580    0.8780   11.3360 H       1  LIG1        0.3734
@<TRIPOS>BOND
     1     1     2   ar
     2     2     3   ar
     3     3     4   ar
     4     4     5   ar
     5     5     6   ar
     6     6     1   ar
     7     6     7    1
     8     7     8    1
     9     7     9    1
    10     5    10   ar
    11    10    11   ar
    12    11    12   ar
    13    12    13    1
    14    12    14   ar
    15    14     4   ar
    16    11    15    1
    17    15    16    1
    18    15    17    1
    19    15    18    1
    20    18    19    1
    21    18    20    1
    22    20    21   ar
    23    21    22    1
    24    21    23   ar
    25    23    24   ar
    26    24    25   ar
    27    25    26    1
    28    25    27   ar
    29    27    20   ar
    30    27    28    1
    31    28    29   ar
    32    29    30    1
    33    29    31   ar
    34    31    32    1
    35    31    33   ar
    36    33    34    1
    37    33    35   ar
    38    35    36    1
    39    35    28   ar
    40    24    37    1
    41    37    38    1
    42    38    39    1
    43    38    40    1
    44    38    41    1
    45    23    42    1
    46    42    43    1
    47    43    44    1
    48    43    45    1
    49    43    46    1
    50    10    47    1
    51    47    48    1
    52    47    49    1
    53    47    50    1
    54     2    51    1
    55    51    52    1
    56    51    53    1
