@<TRIPOS>MOLECULE
27_10
 37 39 0 0 0
SMALL
USER_CHARGES
****
From 3DB ct
@<TRIPOS>ATOM
      1 N          10.1250    2.6400   12.8030 N.ar    1  LIG1       -0.7127
      2 C          10.7930    1.9780   11.8710 C.ar    1  LIG1        0.8096
      3 N          12.0760    2.1660   11.6020 N.ar    1  LIG1       -0.7038
      4 C          12.7390    3.0690   12.3030 C.ar    1  LIG1        0.8400
      5 C          12.1660    3.8450   13.3190 C.ar    1  LIG1       -0.8614
      6 C          10.7970    3.5580   13.5170 C.ar    1  LIG1        0.8149
      7 N          10.0110    4.1940   14.4670 N.pl3   1  LIG1       -0.7521
      8 H           9.8690    5.1880   14.3070 H       1  LIG1        0.3219
      9 H          10.2850    4.0250   15.4310 H       1  LIG1        0.3217
     10 C          13.0200    4.7970   14.0030 C.ar    1  LIG1        0.4875
     11 C          14.3760    4.8950   13.6310 C.ar    1  LIG1       -0.4592
     12 C          14.8020    4.0700   12.6030 C.ar    1  LIG1        0.4064
     13 H          15.8330    4.1020   12.2510 H       1  LIG1        0.0836
     14 N          14.0170    3.1820   11.9570 N.ar    1  LIG1       -0.5931
     15 C          15.3780    5.8410   14.2520 C.3     1  LIG1        0.2043
     16 H          15.9210    5.3290   15.0560 H       1  LIG1        0.0543
     17 H          14.8490    6.6780   14.7230 H       1  LIG1        0.0459
     18 N          16.3170    6.3030   13.2450 N.pl3   1  LIG1       -0.7195
     19 H          17.2850    5.9990   13.3400 H       1  LIG1        0.3679
     20 C          15.9880    7.1220   12.1840 C.ar    1  LIG1        0.3159
     21 C          14.6870    7.6420   12.1110 C.ar    1  LIG1       -0.1478
     22 H          13.9580    7.3970   12.8840 H       1  LIG1        0.1030
     23 C          14.2890    8.4760   11.0610 C.ar    1  LIG1       -0.1664
     24 H          13.2730    8.8640   11.0300 H       1  LIG1        0.1276
     25 C          15.1940    8.8090   10.0590 C.ar    1  LIG1        0.0906
     26 H          14.8840    9.4580    9.2430 H       1  LIG1        0.0565
     27 C          16.4890    8.3040   10.1170 C.ar    1  LIG1       -0.3646
     28 C          16.8840    7.4690   11.1670 C.ar    1  LIG1       -0.0321
     29 H          17.9040    7.0940   11.1760 H       1  LIG1        0.0664
     30 CL         17.6180    8.7120    8.8800 Cl      1  LIG1        0.0763
     31 C          12.4740    5.6780   15.1010 C.3     1  LIG1       -0.2073
     32 H          13.2120    6.3670   15.5170 H       1  LIG1        0.0401
     33 H          12.1220    5.0670   15.9370 H       1  LIG1        0.0731
     34 H          11.6650    6.3050   14.7160 H       1  LIG1        0.0660
     35 N          10.1200    1.0450   11.1450 N.pl3   1  LIG1       -0.8077
     36 H          10.6000    0.5240   10.4260 H       1  LIG1        0.3804
     37 H           9.1410    0.8790   11.3300 H       1  LIG1        0.3738
@<TRIPOS>BOND
     1     1     2   ar
     2     2     3   ar
     3     3     4   ar
     4     4     5   ar
     5     5     6   ar
     6     6     1   ar
     7     6     7    1
     8     7     8    1
     9     7     9    1
    10     5    10   ar
    11    10    11   ar
    12    11    12   ar
    13    12    13    1
    14    12    14   ar
    15    14     4   ar
    16    11    15    1
    17    15    16    1
    18    15    17    1
    19    15    18    1
    20    18    19    1
    21    18    20    1
    22    20    21   ar
    23    21    22    1
    24    21    23   ar
    25    23    24    1
    26    23    25   ar
    27    25    26    1
    28    25    27   ar
    29    27    28   ar
    30    28    29    1
    31    28    20   ar
    32    27    30    1
    33    10    31    1
    34    31    32    1
    35    31    33    1
    36    31    34    1
    37     2    35    1
    38    35    36    1
    39    35    37    1
