@<TRIPOS>MOLECULE
28_8
 37 39 0 0 0
SMALL
USER_CHARGES
****
From 3DB ct
@<TRIPOS>ATOM
      1 C          12.3120    3.6890   13.1110 C.ar    1  LIG1       -0.7584
      2 C          10.9570    3.5230   13.5380 C.ar    1  LIG1        0.7574
      3 N          10.1340    2.6530   12.9430 N.ar    1  LIG1       -0.6883
      4 C          10.5930    1.8750   11.9650 C.ar    1  LIG1        0.7964
      5 N          11.8690    1.8790   11.5870 N.ar    1  LIG1       -0.7119
      6 C          12.7810    2.7570   12.2120 C.ar    1  LIG1        0.8385
      7 N          14.0650    2.6460   11.8180 N.ar    1  LIG1       -0.5838
      8 C          14.9730    3.4930   12.3190 C.ar    1  LIG1        0.3511
      9 H          15.8830    3.4460   12.0490 H       1  LIG1        0.0887
     10 C          14.5360    4.5370   13.3280 C.ar    1  LIG1       -0.2402
     11 C          13.2560    4.7140   13.5950 C.ar    1  LIG1        0.2375
     12 H          12.9330    5.4660   14.0790 H       1  LIG1        0.0795
     13 C          15.7030    5.3160   13.9590 C.2     1  LIG1       -0.1595
     14 H          16.1090    4.9990   14.7580 H       1  LIG1        0.1081
     15 C          16.2410    6.4710   13.4660 C.2     1  LIG1       -0.1094
     16 H          17.0000    6.8590   13.8860 H       1  LIG1        0.1004
     17 C          15.8520    7.3500   12.2830 C.ar    1  LIG1       -0.0216
     18 C          14.5570    7.8070   12.0690 C.ar    1  LIG1       -0.0160
     19 H          13.8640    7.5710   12.6750 H       1  LIG1        0.1107
     20 C          14.2760    8.6000   10.9850 C.ar    1  LIG1       -0.3001
     21 H          13.3920    8.9180   10.8450 H       1  LIG1        0.1494
     22 C          15.2990    8.9340   10.0930 C.ar    1  LIG1        0.3477
     23 C          16.5960    8.4900   10.2830 C.ar    1  LIG1       -0.2585
     24 H          17.2760    8.7310    9.6650 H       1  LIG1        0.1251
     25 C          16.8540    7.6980   11.3860 C.ar    1  LIG1       -0.0869
     26 H          17.7420    7.3900   11.5220 H       1  LIG1        0.1250
     27 O          15.0290    9.8390    9.0430 O.3     1  LIG1       -0.3070
     28 C          16.2440    9.9730    8.3240 C.3     1  LIG1        0.0511
     29 H          17.0350    9.6370    9.0330 H       1  LIG1        0.0273
     30 H          16.2580    9.3240    7.4340 H       1  LIG1        0.0331
     31 H          16.4100   11.0200    8.0330 H       1  LIG1        0.0618
     32 N           9.7620    1.0580   11.3420 N.pl3   1  LIG1       -0.7977
     33 H           8.8940    1.0310   11.5810 H       1  LIG1        0.3686
     34 H          10.0630    0.5280   10.6800 H       1  LIG1        0.3781
     35 N          10.3970    4.2140   14.5100 N.pl3   1  LIG1       -0.7595
     36 H          10.8730    4.8370   14.9510 H       1  LIG1        0.3360
     37 H           9.5380    4.0630   14.7320 H       1  LIG1        0.3274
@<TRIPOS>BOND
     1     1     2   ar
     2     2     3   ar
     3     3     4   ar
     4     4     5   ar
     5     5     6   ar
     6     6     1   ar
     7     6     7   ar
     8     7     8   ar
     9     8     9    1
    10     8    10   ar
    11    10    11   ar
    12    11    12    1
    13    11     1   ar
    14    10    13    1
    15    13    14    1
    16    13    15    2
    17    15    16    1
    18    15    17    1
    19    17    18   ar
    20    18    19    1
    21    18    20   ar
    22    20    21    1
    23    20    22   ar
    24    22    23   ar
    25    23    24    1
    26    23    25   ar
    27    25    26    1
    28    25    17   ar
    29    22    27    1
    30    27    28    1
    31    28    29    1
    32    28    30    1
    33    28    31    1
    34     4    32    1
    35    32    33    1
    36    32    34    1
    37     2    35    1
    38    35    36    1
    39    35    37    1
