@<TRIPOS>MOLECULE
28_9
 47 49 0 0 0
SMALL
USER_CHARGES
****
From 3DB ct
@<TRIPOS>ATOM
      1 N          10.1630    2.6100   12.9050 N.ar    1  LIG1       -0.6862
      2 C          10.7770    1.9560   11.9210 C.ar    1  LIG1        0.7884
      3 N          12.0350    2.1650   11.5440 N.ar    1  LIG1       -0.7050
      4 C          12.7400    3.0720   12.2030 C.ar    1  LIG1        0.8267
      5 C          12.2010    3.8140   13.2510 C.ar    1  LIG1       -0.7442
      6 C          10.8650    3.5470   13.5510 C.ar    1  LIG1        0.7565
      7 N          10.1970    4.1790   14.5840 N.pl3   1  LIG1       -0.7631
      8 H          10.3680    5.1670   14.7410 H       1  LIG1        0.3431
      9 H           9.2290    3.8930   14.7060 H       1  LIG1        0.3278
     10 C          13.0260    4.7480   13.9210 C.ar    1  LIG1        0.2336
     11 H          12.6300    5.3280   14.7530 H       1  LIG1        0.0685
     12 C          14.3490    4.9190   13.5320 C.ar    1  LIG1       -0.2635
     13 C          14.7840    4.1430   12.4710 C.ar    1  LIG1        0.3594
     14 H          15.8060    4.2190   12.1040 H       1  LIG1        0.0827
     15 N          14.0080    3.2400   11.8190 N.ar    1  LIG1       -0.5889
     16 C          15.2600    5.8880   14.2330 C.3     1  LIG1       -0.1501
     17 H          15.6010    5.4500   15.1810 H       1  LIG1        0.0535
     18 H          14.6820    6.7790   14.5090 H       1  LIG1        0.0760
     19 C          16.4720    6.2760   13.3790 C.3     1  LIG1        0.0356
     20 H          16.9800    5.3800   12.9990 H       1  LIG1        0.0258
     21 H          17.2180    6.8000   13.9910 H       1  LIG1        0.0248
     22 C          16.0750    7.1440   12.2060 C.ar    1  LIG1        0.0736
     23 C          17.0070    7.4260   11.1990 C.ar    1  LIG1       -0.3611
     24 H          18.0220    7.0380   11.2640 H       1  LIG1        0.1513
     25 C          16.6340    8.1940   10.1010 C.ar    1  LIG1        0.3233
     26 C          15.3460    8.7350   10.0220 C.ar    1  LIG1       -0.1457
     27 C          14.3930    8.4500   11.0120 C.ar    1  LIG1        0.2963
     28 C          14.7660    7.6540   12.1010 C.ar    1  LIG1       -0.2759
     29 H          14.0550    7.4100   12.8880 H       1  LIG1        0.1432
     30 O          13.1480    8.9900   10.8130 O.3     1  LIG1       -0.2956
     31 C          12.9650    9.8100    9.6610 C.3     1  LIG1        0.0691
     32 H          11.9260   10.1550    9.6620 H       1  LIG1        0.0340
     33 H          13.1270    9.2370    8.7420 H       1  LIG1        0.0423
     34 H          13.6090   10.6950    9.6990 H       1  LIG1        0.0429
     35 O          14.9950    9.4950    8.9310 O.3     1  LIG1       -0.2047
     36 C          16.1200    9.6300    8.0560 C.3     1  LIG1       -0.0250
     37 H          15.8030   10.2290    7.1960 H       1  LIG1        0.0531
     38 H          16.4560    8.6570    7.6850 H       1  LIG1        0.0606
     39 H          16.9430   10.1540    8.5520 H       1  LIG1        0.0556
     40 O          17.5720    8.4600    9.1360 O.3     1  LIG1       -0.2371
     41 C          18.7890    7.7700    9.4440 C.3     1  LIG1       -0.0505
     42 H          19.5070    7.9920    8.6500 H       1  LIG1        0.0812
     43 H          18.6360    6.6860    9.4710 H       1  LIG1        0.0586
     44 H          19.2100    8.1210   10.3920 H       1  LIG1        0.0578
     45 N          10.0640    1.0040   11.2600 N.pl3   1  LIG1       -0.7921
     46 H          10.4920    0.4790   10.5140 H       1  LIG1        0.3769
     47 H           9.1130    0.8160   11.5390 H       1  LIG1        0.3666
@<TRIPOS>BOND
     1     1     2   ar
     2     2     3   ar
     3     3     4   ar
     4     4     5   ar
     5     5     6   ar
     6     6     1   ar
     7     6     7    1
     8     7     8    1
     9     7     9    1
    10     5    10   ar
    11    10    11    1
    12    10    12   ar
    13    12    13   ar
    14    13    14    1
    15    13    15   ar
    16    15     4   ar
    17    12    16    1
    18    16    17    1
    19    16    18    1
    20    16    19    1
    21    19    20    1
    22    19    21    1
    23    19    22    1
    24    22    23   ar
    25    23    24    1
    26    23    25   ar
    27    25    26   ar
    28    26    27   ar
    29    27    28   ar
    30    28    29    1
    31    28    22   ar
    32    27    30    1
    33    30    31    1
    34    31    32    1
    35    31    33    1
    36    31    34    1
    37    26    35    1
    38    35    36    1
    39    36    37    1
    40    36    38    1
    41    36    39    1
    42    25    40    1
    43    40    41    1
    44    41    42    1
    45    41    43    1
    46    41    44    1
    47     2    45    1
    48    45    46    1
    49    45    47    1
