@<TRIPOS>MOLECULE
34_2
 41 43 0 0 0
SMALL
USER_CHARGES
****
From 3DB ct
@<TRIPOS>ATOM
      1 N          10.4930    2.7950   13.2650 N.ar    1  LIG1       -0.7249
      2 C          10.7320    2.0030   12.2080 C.ar    1  LIG1        0.8395
      3 N          11.8410    2.0030   11.4650 N.ar    1  LIG1       -0.6781
      4 C          12.7440    2.9070   11.8730 C.ar    1  LIG1        0.4699
      5 C          12.6200    3.7870   12.9380 C.ar    1  LIG1       -0.6132
      6 C          11.4200    3.6980   13.6610 C.ar    1  LIG1        0.7961
      7 N          11.1090    4.4620   14.7580 N.pl3   1  LIG1       -0.7805
      8 H          11.7350    5.1430   15.1600 H       1  LIG1        0.3365
      9 H          10.2170    4.3110   15.2150 H       1  LIG1        0.3313
     10 C          13.8290    4.5670   12.9830 C.ar    1  LIG1        0.0494
     11 C          14.6340    4.1000   11.9540 C.ar    1  LIG1       -0.1589
     12 H          15.6270    4.3860   11.6310 H       1  LIG1        0.2251
     13 N          13.9630    3.1060   11.2880 N.ar    1  LIG1       -0.3351
     14 H          14.3110    2.5890   10.4900 H       1  LIG1        0.3188
     15 C          14.1440    5.6570   13.9720 C.3     1  LIG1        0.1634
     16 H          14.4160    5.1660   14.9150 H       1  LIG1        0.0213
     17 H          13.2260    6.2320   14.1430 H       1  LIG1        0.0626
     18 N          15.1970    6.5940   13.6010 N.pl3   1  LIG1       -0.6822
     19 H          15.9940    6.6440   14.2310 H       1  LIG1        0.3327
     20 C          15.2770    7.2550   12.3920 C.ar    1  LIG1        0.4173
     21 C          14.0940    7.5350   11.7000 C.ar    1  LIG1       -0.3169
     22 H          13.1320    7.2470   12.1250 H       1  LIG1        0.1547
     23 C          14.1030    8.1870   10.4610 C.ar    1  LIG1       -0.0573
     24 H          13.1450    8.3740    9.9850 H       1  LIG1        0.1269
     25 C          15.3100    8.5680    9.8780 C.ar    1  LIG1        0.0164
     26 C          16.5150    8.2860   10.5480 C.ar    1  LIG1        0.2556
     27 C          16.4850    7.6320   11.7920 C.ar    1  LIG1       -0.4314
     28 H          17.4140    7.4130   12.3080 H       1  LIG1        0.1457
     29 O          17.6640    8.6870    9.9080 O.3     1  LIG1       -0.2171
     30 C          18.9060    8.4190   10.5540 C.3     1  LIG1       -0.0535
     31 H          19.7050    8.7960    9.9080 H       1  LIG1        0.0751
     32 H          19.0600    7.3430   10.6800 H       1  LIG1        0.0555
     33 H          18.9740    8.9480   11.5100 H       1  LIG1        0.0606
     34 O          15.4250    9.2100    8.6700 O.3     1  LIG1       -0.2877
     35 C          16.7410    9.5280    8.2220 C.3     1  LIG1        0.1268
     36 H          16.6510   10.0190    7.2480 H       1  LIG1        0.0255
     37 H          17.3400    8.6220    8.0840 H       1  LIG1        0.0117
     38 H          17.2300   10.2300    8.9050 H       1  LIG1        0.0059
     39 N           9.7540    1.1190   11.8640 N.pl3   1  LIG1       -0.8566
     40 H           9.8890    0.5070   11.0740 H       1  LIG1        0.3850
     41 H           8.8980    1.0910   12.3980 H       1  LIG1        0.3840
@<TRIPOS>BOND
     1     1     2   ar
     2     2     3   ar
     3     3     4   ar
     4     4     5   ar
     5     5     6   ar
     6     6     1   ar
     7     6     7    1
     8     7     8    1
     9     7     9    1
    10     5    10   ar
    11    10    11   ar
    12    11    12    1
    13    11    13   ar
    14    13    14    1
    15    13     4   ar
    16    10    15    1
    17    15    16    1
    18    15    17    1
    19    15    18    1
    20    18    19    1
    21    18    20    1
    22    20    21   ar
    23    21    22    1
    24    21    23   ar
    25    23    24    1
    26    23    25   ar
    27    25    26   ar
    28    26    27   ar
    29    27    28    1
    30    27    20   ar
    31    26    29    1
    32    29    30    1
    33    30    31    1
    34    30    32    1
    35    30    33    1
    36    25    34    1
    37    34    35    1
    38    35    36    1
    39    35    37    1
    40    35    38    1
    41     2    39    1
    42    39    40    1
    43    39    41    1
