@<TRIPOS>MOLECULE
34_4
 41 43 0 0 0
SMALL
USER_CHARGES
****
From 3DB ct
@<TRIPOS>ATOM
      1 N          10.4760    2.7620   13.2500 N.ar    1  LIG1       -0.7304
      2 C          10.7240    1.9730   12.1930 C.ar    1  LIG1        0.8421
      3 N          11.8320    1.9880   11.4480 N.ar    1  LIG1       -0.6808
      4 C          12.7210    2.9060   11.8520 C.ar    1  LIG1        0.4771
      5 C          12.5870    3.7850   12.9160 C.ar    1  LIG1       -0.6325
      6 C          11.3900    3.6790   13.6430 C.ar    1  LIG1        0.8077
      7 N          11.0720    4.4380   14.7410 N.pl3   1  LIG1       -0.7847
      8 H          11.6910    5.1270   15.1410 H       1  LIG1        0.3348
      9 H          10.1830    4.2760   15.2000 H       1  LIG1        0.3331
     10 C          13.7830    4.5840   12.9570 C.ar    1  LIG1        0.0631
     11 C          14.5950    4.1250   11.9290 C.ar    1  LIG1       -0.1511
     12 H          15.5840    4.4240   11.6050 H       1  LIG1        0.2235
     13 N          13.9370    3.1210   11.2650 N.ar    1  LIG1       -0.3446
     14 H          14.2900    2.6070   10.4680 H       1  LIG1        0.3208
     15 C          14.0830    5.6820   13.9460 C.3     1  LIG1        0.1886
     16 H          14.3270    5.1870   14.8940 H       1  LIG1        0.0165
     17 H          13.1640    6.2650   14.0760 H       1  LIG1        0.0614
     18 N          15.1550    6.6010   13.5920 N.pl3   1  LIG1       -0.6340
     19 H          15.9170    6.6640   14.2640 H       1  LIG1        0.3154
     20 C          15.3090    7.2580   12.3800 C.ar    1  LIG1        0.2944
     21 C          14.1280    7.5380   11.6620 C.ar    1  LIG1       -0.3720
     22 H          13.1660    7.2470   12.0840 H       1  LIG1        0.1651
     23 C          14.1350    8.1820   10.4200 C.ar    1  LIG1        0.3315
     24 C          15.3510    8.5560    9.8640 C.ar    1  LIG1       -0.3006
     25 H          15.4170    9.0600    8.9040 H       1  LIG1        0.1323
     26 C          16.5420    8.2840   10.5450 C.ar    1  LIG1       -0.1272
     27 H          17.4660    8.5990   10.0660 H       1  LIG1        0.1264
     28 C          16.5370    7.6370   11.7910 C.ar    1  LIG1        0.0429
     29 O          17.6860    7.3570   12.4890 O.3     1  LIG1       -0.2443
     30 C          18.9340    7.7120   11.8980 C.3     1  LIG1       -0.0200
     31 H          19.7280    7.3730   12.5710 H       1  LIG1        0.0659
     32 H          19.0260    8.7980   11.7970 H       1  LIG1        0.0510
     33 H          19.0750    7.2060   10.9380 H       1  LIG1        0.0463
     34 O          12.9010    8.3810    9.8660 O.3     1  LIG1       -0.2943
     35 C          12.8670    8.9980    8.5790 C.3     1  LIG1        0.0518
     36 H          11.8180    9.0890    8.2820 H       1  LIG1        0.0565
     37 H          13.3730    8.3760    7.8330 H       1  LIG1        0.0292
     38 H          13.2930   10.0050    8.6140 H       1  LIG1        0.0300
     39 N           9.7580    1.0740   11.8530 N.pl3   1  LIG1       -0.8596
     40 H           9.9010    0.4610   11.0640 H       1  LIG1        0.3847
     41 H           8.9050    1.0320   12.3900 H       1  LIG1        0.3842
@<TRIPOS>BOND
     1     1     2   ar
     2     2     3   ar
     3     3     4   ar
     4     4     5   ar
     5     5     6   ar
     6     6     1   ar
     7     6     7    1
     8     7     8    1
     9     7     9    1
    10     5    10   ar
    11    10    11   ar
    12    11    12    1
    13    11    13   ar
    14    13    14    1
    15    13     4   ar
    16    10    15    1
    17    15    16    1
    18    15    17    1
    19    15    18    1
    20    18    19    1
    21    18    20    1
    22    20    21   ar
    23    21    22    1
    24    21    23   ar
    25    23    24   ar
    26    24    25    1
    27    24    26   ar
    28    26    27    1
    29    26    28   ar
    30    28    20   ar
    31    28    29    1
    32    29    30    1
    33    30    31    1
    34    30    32    1
    35    30    33    1
    36    23    34    1
    37    34    35    1
    38    35    36    1
    39    35    37    1
    40    35    38    1
    41     2    39    1
    42    39    40    1
    43    39    41    1
