@<TRIPOS>MOLECULE
34_7
 39 42 0 0 0
SMALL
USER_CHARGES
****
From 3DB ct
@<TRIPOS>ATOM
      1 N          10.4860    2.7790   13.2600 N.ar    1  LIG1       -0.7260
      2 C          10.7190    1.9990   12.1930 C.ar    1  LIG1        0.8418
      3 N          11.8260    2.0030   11.4470 N.ar    1  LIG1       -0.6753
      4 C          12.7320    2.9000   11.8610 C.ar    1  LIG1        0.4476
      5 C          12.6140    3.7700   12.9360 C.ar    1  LIG1       -0.5943
      6 C          11.4170    3.6750   13.6640 C.ar    1  LIG1        0.7935
      7 N          11.1130    4.4230   14.7730 N.pl3   1  LIG1       -0.7865
      8 H          11.7460    5.0900   15.1860 H       1  LIG1        0.3391
      9 H          10.2230    4.2690   15.2320 H       1  LIG1        0.3337
     10 C          13.8240    4.5480   12.9810 C.ar    1  LIG1        0.0514
     11 C          14.6260    4.0850   11.9470 C.ar    1  LIG1       -0.1760
     12 H          15.6200    4.3720   11.6270 H       1  LIG1        0.2251
     13 N          13.9500    3.1000   11.2740 N.ar    1  LIG1       -0.3110
     14 H          14.2930    2.5900   10.4700 H       1  LIG1        0.3144
     15 C          14.1560    5.6320   13.9720 C.3     1  LIG1        0.1283
     16 H          14.4550    5.1330   14.9020 H       1  LIG1        0.0270
     17 H          13.2430    6.2060   14.1700 H       1  LIG1        0.0753
     18 N          15.1960    6.5730   13.5700 N.pl3   1  LIG1       -0.6679
     19 H          16.0300    6.5540   14.1470 H       1  LIG1        0.3424
     20 C          15.2510    7.2240   12.3430 C.ar    1  LIG1        0.3821
     21 C          14.0750    7.5530   11.6470 C.ar    1  LIG1       -0.3056
     22 H          13.0960    7.2830   12.0370 H       1  LIG1        0.1418
     23 C          14.1090    8.2230   10.4250 C.ar    1  LIG1       -0.0019
     24 H          13.1810    8.4550    9.9060 H       1  LIG1        0.1032
     25 C          15.3270    8.5960    9.8730 C.ar    1  LIG1       -0.3324
     26 H          15.3300    9.1180    8.9160 H       1  LIG1        0.1410
     27 C          16.5260    8.3140   10.5360 C.ar    1  LIG1        0.2592
     28 C          16.5070    7.6320   11.7840 C.ar    1  LIG1       -0.1990
     29 C          17.7620    7.4010   12.4030 C.ar    1  LIG1       -0.0463
     30 H          17.8260    6.8980   13.3660 H       1  LIG1        0.0743
     31 C          18.9660    7.8050   11.8190 C.ar    1  LIG1       -0.1647
     32 H          19.9090    7.6060   12.3250 H       1  LIG1        0.1105
     33 C          18.9570    8.4590   10.5960 C.ar    1  LIG1       -0.0336
     34 H          19.8920    8.7760   10.1360 H       1  LIG1        0.0929
     35 C          17.7440    8.7130    9.9610 C.ar    1  LIG1       -0.2424
     36 H          17.7580    9.2340    9.0030 H       1  LIG1        0.1272
     37 N           9.7370    1.1220   11.8420 N.pl3   1  LIG1       -0.8590
     38 H           9.8670    0.5200   11.0430 H       1  LIG1        0.3856
     39 H           8.8820    1.0910   12.3770 H       1  LIG1        0.3847
@<TRIPOS>BOND
     1     1     2   ar
     2     2     3   ar
     3     3     4   ar
     4     4     5   ar
     5     5     6   ar
     6     6     1   ar
     7     6     7    1
     8     7     8    1
     9     7     9    1
    10     5    10   ar
    11    10    11   ar
    12    11    12    1
    13    11    13   ar
    14    13    14    1
    15    13     4   ar
    16    10    15    1
    17    15    16    1
    18    15    17    1
    19    15    18    1
    20    18    19    1
    21    18    20    1
    22    20    21   ar
    23    21    22    1
    24    21    23   ar
    25    23    24    1
    26    23    25   ar
    27    25    26    1
    28    25    27   ar
    29    27    28   ar
    30    28    20   ar
    31    28    29   ar
    32    29    30    1
    33    29    31   ar
    34    31    32    1
    35    31    33   ar
    36    33    34    1
    37    33    35   ar
    38    35    36    1
    39    35    27   ar
    40     2    37    1
    41    37    38    1
    42    37    39    1
