@<TRIPOS>MOLECULE
34_9
 50 52 0 0 0
SMALL
USER_CHARGES
****
From 3DB ct
@<TRIPOS>ATOM
      1 N          10.4910    2.7860   13.2640 N.ar    0  UNK0       -0.7291
      2 C          10.7170    2.0050   12.1960 C.ar    0  UNK0        0.8168
      3 N          11.8220    2.0040   11.4480 N.ar    0  UNK0       -0.6685
      4 C          12.7340    2.8970   11.8600 C.ar    0  UNK0        0.4575
      5 C          12.6230    3.7660   12.9360 C.ar    0  UNK0       -0.6122
      6 C          11.4270    3.6770   13.6660 C.ar    0  UNK0        0.8105
      7 N          11.1290    4.4250   14.7770 N.pl3   0  UNK0       -0.8053
      8 H          11.7670    5.0870   15.1920 H       0  UNK0        0.3510
      9 H          10.2380    4.2760   15.2360 H       0  UNK0        0.3248
     10 C          13.8380    4.5370   12.9790 C.ar    0  UNK0        0.0738
     11 C          14.6350    4.0700   11.9430 C.ar    0  UNK0       -0.1543
     12 H          15.6310    4.3510   11.6220 H       0  UNK0        0.2356
     13 N          13.9520    3.0900   11.2700 N.ar    0  UNK0       -0.3272
     14 H          14.2900    2.5770   10.4660 H       0  UNK0        0.3180
     15 C          14.1780    5.6180   13.9690 C.3     0  UNK0        0.1589
     16 H          14.4990    5.1200   14.8930 H       0  UNK0        0.0214
     17 H          13.2630    6.1810   14.1880 H       0  UNK0        0.0504
     18 N          15.1970    6.5750   13.5560 N.pl3   0  UNK0       -0.7237
     19 H          16.0330    6.6140   14.1360 H       0  UNK0        0.3324
     20 C          15.2110    7.2290   12.3410 C.ar    0  UNK0        0.3957
     21 C          16.4430    7.6210   11.7980 C.ar    0  UNK0       -0.3580
     22 H          17.3680    7.4010   12.3320 H       0  UNK0        0.1144
     23 C          16.5260    8.2960   10.5740 C.ar    0  UNK0        0.0192
     24 H          17.5050    8.5930   10.2070 H       0  UNK0        0.1195
     25 C          15.3610    8.6020    9.8650 C.ar    0  UNK0       -0.1481
     26 C          14.1230    8.2450   10.4060 C.ar    0  UNK0       -0.0503
     27 H          13.2010    8.4830    9.8790 H       0  UNK0        0.1344
     28 C          14.0540    7.5650   11.6300 C.ar    0  UNK0       -0.2746
     29 H          13.0680    7.3040   12.0080 H       0  UNK0        0.1164
     30 C          15.1620    9.0450    8.6520 C.2     0  UNK0        0.5771
     31 N          14.0140    8.9090    7.9740 N.am    1  GLU1       -0.5485
     32 H          13.3640    8.3730    8.2920 H       1  GLU1        0.3149
     33 CA         13.7180    9.5810    6.7190 C.3     1  GLU1        0.0425
     34 HA         14.3080   10.3220    6.6480 H       1  GLU1        0.0512
     35 C          12.2870   10.1290    6.6810 C.2     1  GLU1        0.5193
     36 O          12.2300   11.0540    5.7960 O.co2   1  GLU1       -0.6778
     37 OXT        11.5630    9.5130    7.5120 O.co2   1  GLU1       -0.7059
     38 CB         13.9020    8.7300    5.4670 C.3     1  GLU1       -0.0294
     39 HB1        13.5600    7.8580    5.6240 H       1  GLU1        0.0321
     40 HB2        13.4580    9.1300    4.7290 H       1  GLU1        0.0325
     41 CG         15.3730    8.7190    5.2400 C.3     1  GLU1       -0.1467
     42 HG1        15.6780    9.6070    5.0970 H       1  GLU1        0.0097
     43 HG2        15.8060    8.3570    6.0040 H       1  GLU1       -0.0013
     44 CD         15.7050    7.9070    4.0660 C.2     1  GLU1        0.6038
     45 OE1        16.7650    7.1180    4.0190 O.co2   1  GLU1       -0.7468
     46 OE2        14.9390    7.8800    2.9750 O.co2   1  GLU1       -0.7180
     47 O          16.1000    9.5920    8.0420 O.2     0  UNK0       -0.5035
     48 N           9.7310    1.1330   11.8480 N.pl3   0  UNK0       -0.8521
     49 H           9.8590    0.5270   11.0500 H       0  UNK0        0.3754
     50 H           8.8790    1.1010   12.3870 H       0  UNK0        0.3721
@<TRIPOS>BOND
     1     1     2   ar
     2     2     3   ar
     3     3     4   ar
     4     4     5   ar
     5     5     6   ar
     6     6     1   ar
     7     6     7    1
     8     7     8    1
     9     7     9    1
    10     5    10   ar
    11    10    11   ar
    12    11    12    1
    13    11    13   ar
    14    13    14    1
    15    13     4   ar
    16    10    15    1
    17    15    16    1
    18    15    17    1
    19    15    18    1
    20    18    19    1
    21    18    20    1
    22    20    21   ar
    23    21    22    1
    24    21    23   ar
    25    23    24    1
    26    23    25   ar
    27    25    26   ar
    28    26    27    1
    29    26    28   ar
    30    28    29    1
    31    28    20   ar
    32    25    30    1
    33    30    31   am
    34    31    32    1
    35    31    33    1
    36    33    34    1
    37    33    35    1
    38    35    36   ar
    39    35    37   ar
    40    33    38    1
    41    38    39    1
    42    38    40    1
    43    38    41    1
    44    41    42    1
    45    41    43    1
    46    41    44    1
    47    44    45   ar
    48    44    46   ar
    49    30    47    2
    50     2    48    1
    51    48    49    1
    52    48    50    1
