@<TRIPOS>MOLECULE
38_13
 32 34 0 0 0
SMALL
USER_CHARGES
****
From 3DB ct
@<TRIPOS>ATOM
      1 N          10.4920    2.7890   13.2730 N.ar    1  LIG1       -0.7106
      2 C          10.7090    2.0270   12.1900 C.ar    1  LIG1        0.8289
      3 N          11.8090    2.0290   11.4410 N.ar    1  LIG1       -0.6817
      4 C          12.7220    2.9020   11.8780 C.ar    1  LIG1        0.5860
      5 C          12.6260    3.7520   12.9690 C.ar    1  LIG1       -0.6472
      6 C          11.4350    3.6620   13.6950 C.ar    1  LIG1        0.7707
      7 N          11.1480    4.3940   14.8190 N.pl3   1  LIG1       -0.7406
      8 H          11.7890    5.0490   15.2400 H       1  LIG1        0.3204
      9 H          10.2560    4.2460   15.2770 H       1  LIG1        0.3256
     10 C          13.8530    4.4920   13.0130 C.ar    1  LIG1       -0.0166
     11 C          14.6050    4.0090   11.9580 C.ar    1  LIG1       -0.1050
     12 H          15.5970    4.2350   11.5870 H       1  LIG1        0.2099
     13 O          13.9270    3.0610   11.2650 O.2     1  LIG1       -0.1552
     14 C          14.2450    5.5410   14.0100 C.3     1  LIG1        0.3931
     15 H          14.7170    5.0070   14.8420 H       1  LIG1        0.0108
     16 H          13.3250    6.0180   14.3660 H       1  LIG1        0.0109
     17 N          15.1390    6.5860   13.5380 N.pl3   1  LIG1       -0.9677
     18 H          15.9350    6.7770   14.1440 H       1  LIG1        0.3893
     19 C          15.2490    7.3140   12.3630 C.ar    1  LIG1        0.7867
     20 C          16.4280    7.6980   11.6860 C.ar    1  LIG1       -0.6122
     21 C          16.3690    8.3990   10.4680 C.ar    1  LIG1        0.1595
     22 H          17.2850    8.6960    9.9600 H       1  LIG1        0.0698
     23 C          15.1450    8.7300    9.8910 C.ar    1  LIG1       -0.0487
     24 H          15.1190    9.2720    8.9500 H       1  LIG1        0.0791
     25 C          13.9750    8.3590   10.5350 C.ar    1  LIG1       -0.2541
     26 C          14.0260    7.6620   11.7450 C.ar    1  LIG1       -0.2175
     27 H          13.0880    7.3760   12.2180 H       1  LIG1        0.1183
     28 CL         12.4520    8.7540    9.8360 Cl      1  LIG1        0.0785
     29 CL         18.0290    7.3990   12.2750 Cl      1  LIG1        0.0810
     30 N           9.7100    1.1730   11.8290 N.pl3   1  LIG1       -0.8267
     31 H           9.8270    0.5760   11.0240 H       1  LIG1        0.3855
     32 H           8.8610    1.1400   12.3740 H       1  LIG1        0.3800
@<TRIPOS>BOND
     1     1     2   ar
     2     2     3   ar
     3     3     4   ar
     4     4     5   ar
     5     5     6   ar
     6     6     1   ar
     7     6     7    1
     8     7     8    1
     9     7     9    1
    10     5    10   ar
    11    10    11   ar
    12    11    12    1
    13    11    13   ar
    14    13     4   ar
    15    10    14    1
    16    14    15    1
    17    14    16    1
    18    14    17    1
    19    17    18    1
    20    17    19    1
    21    19    20   ar
    22    20    21   ar
    23    21    22    1
    24    21    23   ar
    25    23    24    1
    26    23    25   ar
    27    25    26   ar
    28    26    27    1
    29    26    19   ar
    30    25    28    1
    31    20    29    1
    32     2    30    1
    33    30    31    1
    34    30    32    1
