@<TRIPOS>MOLECULE
38_10
 43 46 0 0 0
SMALL
USER_CHARGES
****
From 3DB ct
@<TRIPOS>ATOM
      1 N          10.4890    2.7780   13.2620 N.ar    1  LIG1       -0.7180
      2 C          10.7340    1.9990   12.1970 C.ar    1  LIG1        0.8175
      3 N          11.8340    2.0210   11.4490 N.ar    1  LIG1       -0.6723
      4 C          12.7220    2.9250   11.8760 C.ar    1  LIG1        0.5674
      5 C          12.6050    3.7810   12.9600 C.ar    1  LIG1       -0.6640
      6 C          11.4040    3.6880   13.6690 C.ar    1  LIG1        0.8113
      7 N          11.0710    4.4610   14.7510 N.pl3   1  LIG1       -0.7861
      8 H          11.6550    5.1990   15.1130 H       1  LIG1        0.3399
      9 H          10.1660    4.3210   15.1860 H       1  LIG1        0.3331
     10 C          13.8230    4.5370   13.0090 C.ar    1  LIG1        0.0983
     11 C          14.5650    4.0980   11.9270 C.ar    1  LIG1       -0.1179
     12 H          15.5370    4.3710   11.5340 H       1  LIG1        0.2126
     13 O          13.9140    3.1220   11.2480 O.2     1  LIG1       -0.1552
     14 C          14.2100    5.5960   13.9930 C.3     1  LIG1        0.0277
     15 H          14.5640    5.1120   14.9110 H       1  LIG1        0.0772
     16 H          13.2960    6.1510   14.2390 H       1  LIG1        0.0837
     17 N          15.2440    6.5280   13.5580 N.pl3   1  LIG1       -0.6379
     18 H          15.9570    6.6860   14.0840 H       1  LIG1        0.3362
     19 C          15.2250    7.2180   12.3630 C.ar    1  LIG1        0.3584
     20 C          14.0520    7.5260   11.6630 C.ar    1  LIG1       -0.2447
     21 H          13.0750    7.2550   12.0580 H       1  LIG1        0.1385
     22 C          14.0920    8.2020   10.4360 C.ar    1  LIG1       -0.1731
     23 H          13.1590    8.4450    9.9330 H       1  LIG1        0.1336
     24 C          15.3190    8.5600    9.8790 C.ar    1  LIG1        0.2072
     25 C          16.4960    8.2760   10.5620 C.ar    1  LIG1       -0.0992
     26 H          17.4580    8.5680   10.1460 H       1  LIG1        0.1323
     27 C          16.4450    7.5990   11.7850 C.ar    1  LIG1       -0.2996
     28 H          17.3830    7.3730   12.2920 H       1  LIG1        0.1325
     29 O          15.4050    9.2220    8.6570 O.3     1  LIG1       -0.3576
     30 C          14.5610    8.8000    7.6360 C.ar    1  LIG1        0.3212
     31 C          14.1600    7.4560    7.4800 C.ar    1  LIG1       -0.2502
     32 H          14.5170    6.6810    8.1830 H       1  LIG1        0.1316
     33 C          13.3140    7.0990    6.4240 C.ar    1  LIG1       -0.0475
     34 H          12.9970    6.0430    6.3110 H       1  LIG1        0.1034
     35 C          12.8680    8.0560    5.5060 C.ar    1  LIG1       -0.1541
     36 H          12.2020    7.7630    4.6730 H       1  LIG1        0.1082
     37 C          13.2840    9.3830    5.6450 C.ar    1  LIG1       -0.0607
     38 H          12.9460   10.1470    4.9180 H       1  LIG1        0.1036
     39 C          14.1300    9.7520    6.6970 C.ar    1  LIG1       -0.2135
     40 H          14.4630   10.8020    6.8080 H       1  LIG1        0.1360
     41 N           9.7640    1.1060   11.8530 N.pl3   1  LIG1       -0.8184
     42 H           9.8990    0.4980   11.0580 H       1  LIG1        0.3814
     43 H           8.9130    1.0610   12.3950 H       1  LIG1        0.3772
@<TRIPOS>BOND
     1     1     2   ar
     2     2     3   ar
     3     3     4   ar
     4     4     5   ar
     5     5     6   ar
     6     6     1   ar
     7     6     7    1
     8     7     8    1
     9     7     9    1
    10     5    10   ar
    11    10    11   ar
    12    11    12    1
    13    11    13   ar
    14    13     4   ar
    15    10    14    1
    16    14    15    1
    17    14    16    1
    18    14    17    1
    19    17    18    1
    20    17    19    1
    21    19    20   ar
    22    20    21    1
    23    20    22   ar
    24    22    23    1
    25    22    24   ar
    26    24    25   ar
    27    25    26    1
    28    25    27   ar
    29    27    28    1
    30    27    19   ar
    31    24    29    1
    32    29    30    1
    33    30    31   ar
    34    31    32    1
    35    31    33   ar
    36    33    34    1
    37    33    35   ar
    38    35    36    1
    39    35    37   ar
    40    37    38    1
    41    37    39   ar
    42    39    40    1
    43    39    30   ar
    44     2    41    1
    45    41    42    1
    46    41    43    1
