@<TRIPOS>MOLECULE
38_6
 38 41 0 0 0
SMALL
USER_CHARGES
****
From 3DB ct
@<TRIPOS>ATOM
      1 N          10.4820    2.7710   13.2560 N.ar    1  LIG1       -0.7148
      2 C          10.7340    1.9780   12.2030 C.ar    1  LIG1        0.8213
      3 N          11.8400    1.9920   11.4600 N.ar    1  LIG1       -0.6794
      4 C          12.7160    2.9160   11.8680 C.ar    1  LIG1        0.5848
      5 C          12.5800    3.8000   12.9260 C.ar    1  LIG1       -0.6669
      6 C          11.3890    3.6930   13.6490 C.ar    1  LIG1        0.7954
      7 N          11.0690    4.4570   14.7420 N.pl3   1  LIG1       -0.7646
      8 H          11.6820    5.1540   15.1370 H       1  LIG1        0.3349
      9 H          10.1830    4.2920   15.2060 H       1  LIG1        0.3286
     10 C          13.7740    4.5930   12.9460 C.ar    1  LIG1        0.0627
     11 C          14.5480    4.1080   11.9090 C.ar    1  LIG1       -0.1124
     12 H          15.5280    4.3680   11.5280 H       1  LIG1        0.2126
     13 O          13.9160    3.1030   11.2540 O.2     1  LIG1       -0.1598
     14 C          14.1100    5.7000   13.8960 C.3     1  LIG1        0.1143
     15 H          14.1950    5.2580   14.8960 H       1  LIG1        0.0433
     16 H          13.2560    6.3880   13.9300 H       1  LIG1        0.0755
     17 N          15.2810    6.5150   13.5710 N.pl3   1  LIG1       -0.6662
     18 H          15.9770    6.5480   14.1400 H       1  LIG1        0.3439
     19 C          15.3360    7.2460   12.3840 C.ar    1  LIG1        0.3552
     20 C          16.5540    7.6660   11.7710 C.ar    1  LIG1       -0.1455
     21 C          16.5040    8.3110   10.5060 C.ar    1  LIG1        0.2174
     22 C          15.2680    8.5440    9.8880 C.ar    1  LIG1       -0.3085
     23 H          15.2180    9.0410    8.9190 H       1  LIG1        0.1371
     24 C          14.0820    8.1570   10.5020 C.ar    1  LIG1       -0.0060
     25 H          13.1270    8.3480   10.0150 H       1  LIG1        0.1034
     26 C          14.1190    7.5140   11.7360 C.ar    1  LIG1       -0.3113
     27 H          13.1790    7.2010   12.1880 H       1  LIG1        0.1491
     28 C          17.6900    8.7270    9.8770 C.ar    1  LIG1       -0.2196
     29 H          17.6570    9.2150    8.9040 H       1  LIG1        0.1253
     30 C          18.9300    8.5360   10.4840 C.ar    1  LIG1       -0.0524
     31 H          19.8390    8.8660    9.9830 H       1  LIG1        0.0976
     32 C          19.0000    7.9360   11.7340 C.ar    1  LIG1       -0.1414
     33 H          19.9630    7.8000   12.2220 H       1  LIG1        0.1072
     34 C          17.8290    7.5160   12.3700 C.ar    1  LIG1       -0.0824
     35 H          17.9200    7.0780   13.3630 H       1  LIG1        0.0827
     36 N           9.7680    1.0790   11.8650 N.pl3   1  LIG1       -0.8203
     37 H           9.9090    0.4630   11.0780 H       1  LIG1        0.3819
     38 H           8.9140    1.0400   12.4010 H       1  LIG1        0.3770
@<TRIPOS>BOND
     1     1     2   ar
     2     2     3   ar
     3     3     4   ar
     4     4     5   ar
     5     5     6   ar
     6     6     1   ar
     7     6     7    1
     8     7     8    1
     9     7     9    1
    10     5    10   ar
    11    10    11   ar
    12    11    12    1
    13    11    13   ar
    14    13     4   ar
    15    10    14    1
    16    14    15    1
    17    14    16    1
    18    14    17    1
    19    17    18    1
    20    17    19    1
    21    19    20   ar
    22    20    21   ar
    23    21    22   ar
    24    22    23    1
    25    22    24   ar
    26    24    25    1
    27    24    26   ar
    28    26    27    1
    29    26    19   ar
    30    21    28   ar
    31    28    29    1
    32    28    30   ar
    33    30    31    1
    34    30    32   ar
    35    32    33    1
    36    32    34   ar
    37    34    35    1
    38    34    20   ar
    39     2    36    1
    40    36    37    1
    41    36    38    1
