@<TRIPOS>MOLECULE
41_4d
 43 47 0 0 0
SMALL
USER_CHARGES
****
From 3DB ct
@<TRIPOS>ATOM
      1 N          10.4790    2.7740   13.2550 N.ar    1  LIG1       -0.7178
      2 C          10.7300    1.9960   12.1890 C.ar    1  LIG1        0.8266
      3 N          11.8400    2.0100   11.4500 N.ar    1  LIG1       -0.6825
      4 C          12.7230    2.9190   11.8780 C.ar    1  LIG1        0.5899
      5 C          12.5890    3.7830   12.9500 C.ar    1  LIG1       -0.6789
      6 C          11.3960    3.6770   13.6680 C.ar    1  LIG1        0.8007
      7 N          11.1060    4.4300   14.7780 N.pl3   1  LIG1       -0.7659
      8 H          11.8110    5.0240   15.2050 H       1  LIG1        0.3342
      9 H          10.2440    4.2640   15.2810 H       1  LIG1        0.3297
     10 C          13.7830    4.5690   12.9910 C.ar    1  LIG1        0.0706
     11 C          14.5610    4.1060   11.9480 C.ar    1  LIG1       -0.1164
     12 H          15.5400    4.3790   11.5720 H       1  LIG1        0.2132
     13 O          13.9280    3.1130   11.2720 O.2     1  LIG1       -0.1601
     14 C          14.1180    5.6740   13.9380 C.3     1  LIG1        0.1240
     15 H          14.3390    5.2140   14.9100 H       1  LIG1        0.0429
     16 H          13.2300    6.3040   14.0760 H       1  LIG1        0.0674
     17 N          15.2340    6.5160   13.5330 N.pl3   1  LIG1       -0.6728
     18 H          16.0880    6.4240   14.0800 H       1  LIG1        0.3349
     19 C          15.2930    7.2180   12.3450 C.ar    1  LIG1        0.4468
     20 C          16.5450    7.6540   11.8840 C.ar    1  LIG1       -0.4277
     21 H          17.4500    7.4250   12.4440 H       1  LIG1        0.1582
     22 C          16.6390    8.3820   10.7000 C.ar    1  LIG1        0.2007
     23 C          15.5210    8.7060    9.9530 C.ar    1  LIG1       -0.1731
     24 C          14.2520    8.2930   10.4030 C.ar    1  LIG1       -0.0156
     25 H          13.3550    8.5370    9.8400 H       1  LIG1        0.1172
     26 C          14.1530    7.5600   11.5940 C.ar    1  LIG1       -0.3335
     27 H          13.1600    7.2580   11.9180 H       1  LIG1        0.1513
     28 C          15.9110    9.4250    8.8280 C.ar    1  LIG1        0.0446
     29 C          17.2900    9.5740    8.8380 C.ar    1  LIG1        0.0322
     30 C          17.8920    8.9150   10.0540 C.3     1  LIG1       -0.2084
     31 H          18.5660    8.1020    9.7680 H       1  LIG1        0.0910
     32 H          18.3860    9.6490   10.6970 H       1  LIG1        0.0932
     33 C          17.9610   10.2530    7.8280 C.ar    1  LIG1       -0.1553
     34 H          19.0430   10.3610    7.8490 H       1  LIG1        0.1250
     35 C          17.2180   10.7950    6.7780 C.ar    1  LIG1       -0.1041
     36 H          17.7250   11.3290    5.9750 H       1  LIG1        0.1018
     37 C          15.8230   10.6590    6.7460 C.ar    1  LIG1       -0.1134
     38 H          15.2560   11.0870    5.9210 H       1  LIG1        0.1042
     39 C          15.1580    9.9760    7.7670 C.ar    1  LIG1       -0.1324
     40 H          14.0760    9.8710    7.7400 H       1  LIG1        0.1208
     41 N           9.7590    1.1090   11.8340 N.pl3   1  LIG1       -0.8246
     42 H           9.8980    0.5010   11.0410 H       1  LIG1        0.3831
     43 H           8.9050    1.0660   12.3710 H       1  LIG1        0.3782
@<TRIPOS>BOND
     1     1     2   ar
     2     2     3   ar
     3     3     4   ar
     4     4     5   ar
     5     5     6   ar
     6     6     1   ar
     7     6     7    1
     8     7     8    1
     9     7     9    1
    10     5    10   ar
    11    10    11   ar
    12    11    12    1
    13    11    13   ar
    14    13     4   ar
    15    10    14    1
    16    14    15    1
    17    14    16    1
    18    14    17    1
    19    17    18    1
    20    17    19    1
    21    19    20   ar
    22    20    21    1
    23    20    22   ar
    24    22    23   ar
    25    23    24   ar
    26    24    25    1
    27    24    26   ar
    28    26    27    1
    29    26    19   ar
    30    23    28    1
    31    28    29   ar
    32    29    30    1
    33    30    31    1
    34    30    32    1
    35    30    22    1
    36    29    33   ar
    37    33    34    1
    38    33    35   ar
    39    35    36    1
    40    35    37   ar
    41    37    38    1
    42    37    39   ar
    43    39    40    1
    44    39    28   ar
    45     2    41    1
    46    41    42    1
    47    41    43    1
