@<TRIPOS>MOLECULE
41_5b
 51 55 0 0 0
SMALL
USER_CHARGES
****
From 3DB ct
@<TRIPOS>ATOM
      1 N          10.4750    2.7730   13.2530 N.ar    1  LIG1       -0.7177
      2 C          10.7250    1.9930   12.1890 C.ar    1  LIG1        0.8221
      3 N          11.8340    2.0050   11.4500 N.ar    1  LIG1       -0.6755
      4 C          12.7190    2.9130   11.8760 C.ar    1  LIG1        0.5834
      5 C          12.5880    3.7770   12.9500 C.ar    1  LIG1       -0.6878
      6 C          11.3940    3.6740   13.6650 C.ar    1  LIG1        0.8019
      7 N          11.0990    4.4300   14.7710 N.pl3   1  LIG1       -0.7586
      8 H          11.8070    5.0160   15.2030 H       1  LIG1        0.3349
      9 H          10.2320    4.2700   15.2670 H       1  LIG1        0.3262
     10 C          13.7870    4.5570   12.9910 C.ar    1  LIG1        0.1278
     11 C          14.5570    4.0980   11.9390 C.ar    1  LIG1       -0.1199
     12 H          15.5340    4.3700   11.5570 H       1  LIG1        0.2195
     13 O          13.9210    3.1050   11.2650 O.2     1  LIG1       -0.1669
     14 C          14.1410    5.6610   13.9410 C.3     1  LIG1       -0.0496
     15 H          14.3610    5.1590   14.8930 H       1  LIG1        0.0821
     16 H          13.2550    6.2860   14.1140 H       1  LIG1        0.0863
     17 N          15.2620    6.5490   13.5780 N.pl3   1  LIG1       -0.3342
     18 C          15.2910    7.2260   12.3600 C.ar    1  LIG1        0.2086
     19 C          16.4900    7.6990   11.7950 C.ar    1  LIG1       -0.1676
     20 H          17.4380    7.5750   12.3110 H       1  LIG1        0.1333
     21 C          16.5140    8.3860   10.5560 C.ar    1  LIG1       -0.1484
     22 C          15.3130    8.5890    9.8790 C.ar    1  LIG1        0.2690
     23 C          14.0960    8.1360   10.4010 C.ar    1  LIG1       -0.1969
     24 H          13.1550    8.2900    9.8790 H       1  LIG1        0.1454
     25 C          14.1150    7.4630   11.6330 C.ar    1  LIG1       -0.2190
     26 H          13.1560    7.1030   12.0070 H       1  LIG1        0.1380
     27 N          15.6120    9.2680    8.7130 N.ar    1  LIG1       -0.4955
     28 C          16.9690    9.5260    8.6330 C.ar    1  LIG1        0.2788
     29 C          17.5560    8.9760    9.7750 C.ar    1  LIG1       -0.0562
     30 C          18.9530    9.0930    9.9450 C.ar    1  LIG1       -0.0739
     31 H          19.4380    8.6740   10.8240 H       1  LIG1        0.1158
     32 C          19.7150    9.7560    8.9780 C.ar    1  LIG1       -0.1726
     33 H          20.7920    9.8470    9.1110 H       1  LIG1        0.1104
     34 C          19.1080   10.3010    7.8520 C.ar    1  LIG1       -0.0551
     35 H          19.7150   10.8170    7.1090 H       1  LIG1        0.1019
     36 C          17.7280   10.1970    7.6590 C.ar    1  LIG1       -0.2585
     37 H          17.2660   10.6300    6.7750 H       1  LIG1        0.1441
     38 C          14.6340    9.6490    7.7020 C.3     1  LIG1        0.2954
     39 H          13.8500    8.8840    7.6830 H       1  LIG1       -0.0009
     40 H          15.1260    9.6200    6.7240 H       1  LIG1        0.0002
     41 C          14.0390   11.0220    7.9630 C.3     1  LIG1       -0.1378
     42 H          13.3040   11.2690    7.1900 H       1  LIG1        0.0253
     43 H          14.8130   11.7960    7.9590 H       1  LIG1        0.0449
     44 H          13.5360   11.0580    8.9350 H       1  LIG1        0.0425
     45 C          16.4860    6.4860   14.3810 C.3     1  LIG1       -0.0290
     46 H          16.6090    7.4050   14.9630 H       1  LIG1        0.0522
     47 H          17.3700    6.3400   13.7490 H       1  LIG1        0.0343
     48 H          16.4720    5.6460   15.0830 H       1  LIG1        0.0611
     49 N           9.7540    1.1040   11.8380 N.pl3   1  LIG1       -0.8247
     50 H           9.8980    0.4880   11.0510 H       1  LIG1        0.3819
     51 H           8.9020    1.0580   12.3780 H       1  LIG1        0.3787
@<TRIPOS>BOND
     1     1     2   ar
     2     2     3   ar
     3     3     4   ar
     4     4     5   ar
     5     5     6   ar
     6     6     1   ar
     7     6     7    1
     8     7     8    1
     9     7     9    1
    10     5    10   ar
    11    10    11   ar
    12    11    12    1
    13    11    13   ar
    14    13     4   ar
    15    10    14    1
    16    14    15    1
    17    14    16    1
    18    14    17    1
    19    17    18    1
    20    18    19   ar
    21    19    20    1
    22    19    21   ar
    23    21    22   ar
    24    22    23   ar
    25    23    24    1
    26    23    25   ar
    27    25    26    1
    28    25    18   ar
    29    22    27   ar
    30    27    28   ar
    31    28    29   ar
    32    29    21   ar
    33    29    30   ar
    34    30    31    1
    35    30    32   ar
    36    32    33    1
    37    32    34   ar
    38    34    35    1
    39    34    36   ar
    40    36    37    1
    41    36    28   ar
    42    27    38    1
    43    38    39    1
    44    38    40    1
    45    38    41    1
    46    41    42    1
    47    41    43    1
    48    41    44    1
    49    17    45    1
    50    45    46    1
    51    45    47    1
    52    45    48    1
    53     2    49    1
    54    49    50    1
    55    49    51    1
