@<TRIPOS>MOLECULE
41_7c
 41 44 0 0 0
SMALL
USER_CHARGES
****
From 3DB ct
@<TRIPOS>ATOM
      1 N          10.4230    2.6960   13.2160 N.ar    1  LIG1       -0.6994
      2 C          10.7410    1.9250   12.1640 C.ar    1  LIG1        0.8172
      3 N          11.8710    1.9870   11.4630 N.ar    1  LIG1       -0.6707
      4 C          12.6990    2.9350   11.9130 C.ar    1  LIG1        0.5519
      5 C          12.4960    3.7990   12.9770 C.ar    1  LIG1       -0.6008
      6 C          11.2840    3.6420   13.6550 C.ar    1  LIG1        0.7348
      7 N          10.8990    4.3850   14.7410 N.pl3   1  LIG1       -0.7006
      8 H          11.5080    5.0570   15.1870 H       1  LIG1        0.3128
      9 H          10.0090    4.1830   15.1800 H       1  LIG1        0.3109
     10 C          13.6620    4.6310   13.0480 C.ar    1  LIG1        0.0494
     11 C          14.4820    4.1970   12.0240 C.ar    1  LIG1       -0.0728
     12 H          15.4590    4.5080   11.6730 H       1  LIG1        0.1874
     13 O          13.9090    3.1780   11.3370 O.2     1  LIG1       -0.1554
     14 C          13.9490    5.7490   13.9900 C.3     1  LIG1       -0.1495
     15 H          13.7890    5.4210   15.0220 H       1  LIG1        0.1144
     16 H          13.2660    6.5830   13.7980 H       1  LIG1        0.0825
     17 S          15.6710    6.3300   13.7810 S.3     1  LIG1       -0.0741
     18 C          15.5230    7.2260   12.2450 C.ar    1  LIG1       -0.0699
     19 C          16.6330    7.7240   11.5620 C.ar    1  LIG1       -0.0143
     20 H          17.6400    7.5810   11.9470 H       1  LIG1        0.1012
     21 C          16.4710    8.4310   10.3630 C.ar    1  LIG1       -0.1827
     22 H          17.3640    8.7910    9.8520 H       1  LIG1        0.1226
     23 C          15.1980    8.6690    9.8190 C.ar    1  LIG1        0.0356
     24 C          14.0900    8.1750   10.5270 C.ar    1  LIG1       -0.1323
     25 H          13.0790    8.3460   10.1580 H       1  LIG1        0.1101
     26 C          14.2490    7.4670   11.7260 C.ar    1  LIG1       -0.0777
     27 H          13.3610    7.1050   12.2420 H       1  LIG1        0.1141
     28 C          15.0310    9.4130    8.5550 C.ar    1  LIG1        0.0240
     29 C          15.7290   10.6100    8.3160 C.ar    1  LIG1       -0.1115
     30 H          16.4000   11.0170    9.0720 H       1  LIG1        0.1076
     31 C          15.5720   11.3150    7.1180 C.ar    1  LIG1       -0.1131
     32 H          16.1200   12.2410    6.9570 H       1  LIG1        0.1025
     33 C          14.7110   10.8350    6.1350 C.ar    1  LIG1       -0.0737
     34 H          14.5870   11.3840    5.2020 H       1  LIG1        0.0968
     35 C          14.0090    9.6520    6.3470 C.ar    1  LIG1       -0.1321
     36 H          13.3360    9.2730    5.5800 H       1  LIG1        0.1089
     37 C          14.1680    8.9490    7.5450 C.ar    1  LIG1       -0.1031
     38 H          13.6130    8.0210    7.6790 H       1  LIG1        0.1117
     39 N           9.8190    0.9980   11.7790 N.pl3   1  LIG1       -0.8210
     40 H          10.0070    0.4010   10.9880 H       1  LIG1        0.3819
     41 H           8.9480    0.9230   12.2840 H       1  LIG1        0.3762
@<TRIPOS>BOND
     1     1     2   ar
     2     2     3   ar
     3     3     4   ar
     4     4     5   ar
     5     5     6   ar
     6     6     1   ar
     7     6     7    1
     8     7     8    1
     9     7     9    1
    10     5    10   ar
    11    10    11   ar
    12    11    12    1
    13    11    13   ar
    14    13     4   ar
    15    10    14    1
    16    14    15    1
    17    14    16    1
    18    14    17    1
    19    17    18    1
    20    18    19   ar
    21    19    20    1
    22    19    21   ar
    23    21    22    1
    24    21    23   ar
    25    23    24   ar
    26    24    25    1
    27    24    26   ar
    28    26    27    1
    29    26    18   ar
    30    23    28    1
    31    28    29   ar
    32    29    30    1
    33    29    31   ar
    34    31    32    1
    35    31    33   ar
    36    33    34    1
    37    33    35   ar
    38    35    36    1
    39    35    37   ar
    40    37    38    1
    41    37    28   ar
    42     2    39    1
    43    39    40    1
    44    39    41    1
