@<TRIPOS>MOLECULE
41_7b
 41 44 0 0 0
SMALL
USER_CHARGES
****
From 3DB ct
@<TRIPOS>ATOM
      1 N          10.4390    2.7170   13.2250 N.ar    1  LIG1       -0.7234
      2 C          10.7360    1.9310   12.1800 C.ar    1  LIG1        0.8177
      3 N          11.8530    1.9800   11.4560 N.ar    1  LIG1       -0.6643
      4 C          12.6970    2.9220   11.8870 C.ar    1  LIG1        0.5409
      5 C          12.5240    3.7920   12.9510 C.ar    1  LIG1       -0.6600
      6 C          11.3110    3.6660   13.6360 C.ar    1  LIG1        0.8290
      7 N          10.9300    4.4440   14.6990 N.pl3   1  LIG1       -0.8088
      8 H          11.4850    5.2050   15.0610 H       1  LIG1        0.3509
      9 H          10.0220    4.2800   15.1190 H       1  LIG1        0.3398
     10 C          13.7120    4.6000   13.0170 C.ar    1  LIG1        0.1334
     11 C          14.4940    4.1650   11.9620 C.ar    1  LIG1       -0.0535
     12 H          15.4640    4.4610   11.5810 H       1  LIG1        0.1779
     13 O          13.8960    3.1520   11.2870 O.2     1  LIG1       -0.1564
     14 C          13.9900    5.6840   14.0100 C.3     1  LIG1       -0.3566
     15 H          13.9110    5.2700   15.0200 H       1  LIG1        0.1832
     16 H          13.2350    6.4700   13.8980 H       1  LIG1        0.1314
     17 S          15.6510    6.4330   13.8480 S.3     1  LIG1       -0.0281
     18 C          15.4560    7.2670   12.2820 C.ar    1  LIG1       -0.1210
     19 C          16.5960    7.7220   11.6040 C.ar    1  LIG1        0.0456
     20 H          17.5800    7.5370   12.0350 H       1  LIG1        0.0910
     21 C          16.4990    8.3930   10.3710 C.ar    1  LIG1       -0.1386
     22 C          15.2150    8.6040    9.8400 C.ar    1  LIG1       -0.0072
     23 H          15.0910    9.1290    8.8930 H       1  LIG1        0.0900
     24 C          14.0740    8.1670   10.5150 C.ar    1  LIG1       -0.1641
     25 H          13.0880    8.3510   10.0900 H       1  LIG1        0.1148
     26 C          14.1940    7.5040   11.7350 C.ar    1  LIG1       -0.0686
     27 H          13.2900    7.1860   12.2510 H       1  LIG1        0.1186
     28 C          17.7040    8.8610    9.6590 C.ar    1  LIG1        0.0506
     29 C          18.7110    9.5800   10.3270 C.ar    1  LIG1       -0.0954
     30 H          18.6100    9.8150   11.3860 H       1  LIG1        0.1049
     31 C          19.8540   10.0220    9.6530 C.ar    1  LIG1       -0.1375
     32 H          20.6190   10.5790   10.1910 H       1  LIG1        0.1107
     33 C          20.0120    9.7520    8.2970 C.ar    1  LIG1       -0.0664
     34 H          20.9010   10.0960    7.7710 H       1  LIG1        0.0970
     35 C          19.0290    9.0420    7.6140 C.ar    1  LIG1       -0.1354
     36 H          19.1490    8.8270    6.5540 H       1  LIG1        0.1091
     37 C          17.8870    8.6010    8.2900 C.ar    1  LIG1       -0.0947
     38 H          17.1380    8.0390    7.7320 H       1  LIG1        0.1047
     39 N           9.8060    1.0000   11.8270 N.pl3   1  LIG1       -0.8196
     40 H           9.9800    0.3850   11.0460 H       1  LIG1        0.3798
     41 H           8.9450    0.9340   12.3500 H       1  LIG1        0.3783
@<TRIPOS>BOND
     1     1     2   ar
     2     2     3   ar
     3     3     4   ar
     4     4     5   ar
     5     5     6   ar
     6     6     1   ar
     7     6     7    1
     8     7     8    1
     9     7     9    1
    10     5    10   ar
    11    10    11   ar
    12    11    12    1
    13    11    13   ar
    14    13     4   ar
    15    10    14    1
    16    14    15    1
    17    14    16    1
    18    14    17    1
    19    17    18    1
    20    18    19   ar
    21    19    20    1
    22    19    21   ar
    23    21    22   ar
    24    22    23    1
    25    22    24   ar
    26    24    25    1
    27    24    26   ar
    28    26    27    1
    29    26    18   ar
    30    21    28    1
    31    28    29   ar
    32    29    30    1
    33    29    31   ar
    34    31    32    1
    35    31    33   ar
    36    33    34    1
    37    33    35   ar
    38    35    36    1
    39    35    37   ar
    40    37    38    1
    41    37    28   ar
    42     2    39    1
    43    39    40    1
    44    39    41    1
