@<TRIPOS>MOLECULE
43_14
 35 37 0 0 0
SMALL
USER_CHARGES
****
From 3DB ct
@<TRIPOS>ATOM
      1 N          12.0810    2.1580   11.7000 N.ar    1  LIG1       -0.7262
      2 H          12.2860    1.4430   11.0170 H       1  LIG1        0.3347
      3 C          10.7720    2.3470   12.0930 C.ar    1  LIG1        0.8641
      4 N          10.4080    3.2500   12.9660 N.ar    1  LIG1       -0.6366
      5 C          11.4340    3.9870   13.4520 C.ar    1  LIG1        0.4451
      6 C          12.7710    3.8920   13.1390 C.ar    1  LIG1       -0.4749
      7 C          13.1570    2.8880   12.1710 C.ar    1  LIG1        0.7091
      8 O          14.3130    2.7000   11.7960 O.2     1  LIG1       -0.4546
      9 C          13.4760    4.8730   13.8950 C.ar    1  LIG1       -0.1454
     10 C          12.5110    5.5460   14.6460 C.ar    1  LIG1        0.1331
     11 N          11.2800    4.9860   14.3690 N.ar    1  LIG1       -0.4325
     12 H          10.3960    5.2690   14.7750 H       1  LIG1        0.3711
     13 C          12.6460    6.6670   15.6160 C.3     1  LIG1       -0.2115
     14 H          13.3710    7.4040   15.2560 H       1  LIG1        0.0765
     15 H          12.9900    6.2890   16.5840 H       1  LIG1        0.0811
     16 H          11.6920    7.1820   15.7670 H       1  LIG1        0.0667
     17 C          14.9600    5.1450   13.8880 C.3     1  LIG1        0.3586
     18 H          15.3900    4.5270   13.0910 H       1  LIG1        0.0342
     19 H          15.3920    4.8130   14.8380 H       1  LIG1       -0.0093
     20 N          15.3110    6.5400   13.6680 N.pl3   1  LIG1       -0.8197
     21 H          15.4840    7.0780   14.5150 H       1  LIG1        0.3675
     22 C          15.3700    7.1990   12.4510 C.ar    1  LIG1        0.4522
     23 C          16.5320    7.3960   11.6710 C.ar    1  LIG1       -0.2122
     24 H          17.5090    7.0080   12.0160 H       1  LIG1        0.1516
     25 C          16.4410    8.0690   10.4420 C.ar    1  LIG1       -0.1501
     26 H          17.3120    8.2270    9.8100 H       1  LIG1        0.1216
     27 C          15.2180    8.5590    9.9720 C.ar    1  LIG1        0.0682
     28 H          15.2080    9.0700    9.0130 H       1  LIG1        0.0560
     29 C          14.0670    8.3830   10.7270 C.ar    1  LIG1       -0.3448
     30 C          14.1540    7.7090   11.9500 C.ar    1  LIG1       -0.1016
     31 H          13.2420    7.5740   12.5310 H       1  LIG1        0.0744
     32 CL         12.5480    8.9780   10.1720 Cl      1  LIG1        0.0637
     33 N           9.8550    1.5400   11.5210 N.pl3   1  LIG1       -0.8923
     34 H           8.8740    1.6320   11.7630 H       1  LIG1        0.3875
     35 H          10.0840    0.8290   10.8370 H       1  LIG1        0.3948
@<TRIPOS>BOND
     1     2     1    1
     2     1     3   ar
     3     3     4   ar
     4     4     5   ar
     5     5     6   ar
     6     6     7   ar
     7     7     1   ar
     8     7     8    2
     9     6     9   ar
    10     9    10   ar
    11    10    11   ar
    12    11    12    1
    13    11     5   ar
    14    10    13    1
    15    13    14    1
    16    13    15    1
    17    13    16    1
    18     9    17    1
    19    17    18    1
    20    17    19    1
    21    17    20    1
    22    20    21    1
    23    20    22    1
    24    22    23   ar
    25    23    24    1
    26    23    25   ar
    27    25    26    1
    28    25    27   ar
    29    27    28    1
    30    27    29   ar
    31    29    30   ar
    32    30    31    1
    33    30    22   ar
    34    29    32    1
    35     3    33    1
    36    33    34    1
    37    33    35    1
