@<TRIPOS>MOLECULE
43_11
 35 37 0 0 0
SMALL
USER_CHARGES
****
From 3DB ct
@<TRIPOS>ATOM
      1 N          12.1050    2.1600   11.7230 N.ar    1  LIG1       -0.7322
      2 H          12.3180    1.4420   11.0460 H       1  LIG1        0.3373
      3 C          10.7880    2.3730   12.0780 C.ar    1  LIG1        0.8474
      4 N          10.4140    3.2820   12.9390 N.ar    1  LIG1       -0.6334
      5 C          11.4380    4.0000   13.4570 C.ar    1  LIG1        0.4588
      6 C          12.7810    3.8770   13.1860 C.ar    1  LIG1       -0.4573
      7 C          13.1800    2.8700   12.2270 C.ar    1  LIG1        0.7197
      8 O          14.3420    2.6620   11.8840 O.2     1  LIG1       -0.4505
      9 C          13.4830    4.8370   13.9730 C.ar    1  LIG1       -0.2340
     10 C          12.5090    5.5280   14.6930 C.ar    1  LIG1        0.2205
     11 N          11.2750    5.0020   14.3700 N.ar    1  LIG1       -0.4604
     12 H          10.3840    5.3060   14.7450 H       1  LIG1        0.3728
     13 C          12.6380    6.6400   15.6760 C.3     1  LIG1       -0.2578
     14 H          13.4710    7.2980   15.4080 H       1  LIG1        0.0862
     15 H          12.8240    6.2390   16.6770 H       1  LIG1        0.0947
     16 H          11.7290    7.2480   15.7090 H       1  LIG1        0.0745
     17 C          14.9720    5.0640   14.0250 C.3     1  LIG1        0.3247
     18 H          15.4340    4.2770   13.4160 H       1  LIG1        0.0447
     19 H          15.3140    4.9400   15.0560 H       1  LIG1        0.0390
     20 N          15.3860    6.3670   13.5320 N.pl3   1  LIG1       -0.8866
     21 H          15.8900    6.9280   14.2170 H       1  LIG1        0.3746
     22 C          15.2340    7.1330   12.3890 C.ar    1  LIG1        0.7240
     23 C          14.0500    7.7260   11.8960 C.ar    1  LIG1       -0.1141
     24 H          13.0910    7.5840   12.4300 H       1  LIG1        0.0911
     25 C          14.0620    8.5010   10.7230 C.ar    1  LIG1       -0.2564
     26 C          15.2410    8.7020   10.0110 C.ar    1  LIG1       -0.0851
     27 H          15.2310    9.3070    9.1080 H       1  LIG1        0.0858
     28 C          16.4140    8.1240   10.4710 C.ar    1  LIG1        0.1636
     29 H          17.3640    8.2680    9.9170 H       1  LIG1        0.0661
     30 C          16.4100    7.3540   11.6380 C.ar    1  LIG1       -0.5949
     31 CL         17.9580    6.7040   12.1040 Cl      1  LIG1        0.0702
     32 CL         12.5880    9.2080   10.1640 Cl      1  LIG1        0.0675
     33 N           9.8770    1.5780   11.4790 N.pl3   1  LIG1       -0.8762
     34 H           8.8900    1.6830   11.6860 H       1  LIG1        0.3832
     35 H          10.1200    0.8640   10.8010 H       1  LIG1        0.3923
@<TRIPOS>BOND
     1     2     1    1
     2     1     3   ar
     3     3     4   ar
     4     4     5   ar
     5     5     6   ar
     6     6     7   ar
     7     7     1   ar
     8     7     8    2
     9     6     9   ar
    10     9    10   ar
    11    10    11   ar
    12    11    12    1
    13    11     5   ar
    14    10    13    1
    15    13    14    1
    16    13    15    1
    17    13    16    1
    18     9    17    1
    19    17    18    1
    20    17    19    1
    21    17    20    1
    22    20    21    1
    23    20    22    1
    24    22    23   ar
    25    23    24    1
    26    23    25   ar
    27    25    26   ar
    28    26    27    1
    29    26    28   ar
    30    28    29    1
    31    28    30   ar
    32    30    22   ar
    33    30    31    1
    34    25    32    1
    35     3    33    1
    36    33    34    1
    37    33    35    1
