@<TRIPOS>MOLECULE
43_7
 43 45 0 0 0
SMALL
USER_CHARGES
****
From 3DB ct
@<TRIPOS>ATOM
      1 N          12.0810    2.1580   11.7000 N.ar    1  LIG1       -0.7632
      2 H          12.2860    1.4430   11.0170 H       1  LIG1        0.3392
      3 C          10.7720    2.3470   12.0930 C.ar    1  LIG1        0.8781
      4 N          10.4080    3.2500   12.9660 N.ar    1  LIG1       -0.6487
      5 C          11.4340    3.9870   13.4520 C.ar    1  LIG1        0.4951
      6 C          12.7710    3.8920   13.1390 C.ar    1  LIG1       -0.5669
      7 C          13.1570    2.8880   12.1710 C.ar    1  LIG1        0.7776
      8 O          14.3130    2.7000   11.7960 O.2     1  LIG1       -0.4685
      9 C          13.4760    4.8730   13.8950 C.ar    1  LIG1       -0.0248
     10 C          12.5110    5.5460   14.6460 C.ar    1  LIG1        0.1263
     11 N          11.2800    4.9860   14.3690 N.ar    1  LIG1       -0.4724
     12 H          10.3960    5.2690   14.7750 H       1  LIG1        0.3772
     13 C          12.6460    6.6670   15.6160 C.3     1  LIG1       -0.1474
     14 H          13.3710    7.4040   15.2560 H       1  LIG1        0.0552
     15 H          12.9900    6.2890   16.5840 H       1  LIG1        0.0667
     16 H          11.6920    7.1820   15.7670 H       1  LIG1        0.0496
     17 C          14.9600    5.1450   13.8880 C.3     1  LIG1        0.0766
     18 H          15.3900    4.5270   13.0910 H       1  LIG1        0.0937
     19 H          15.3920    4.8130   14.8380 H       1  LIG1        0.0527
     20 N          15.3110    6.5400   13.6680 N.pl3   1  LIG1       -0.5513
     21 H          15.4840    7.0780   14.5150 H       1  LIG1        0.3195
     22 C          15.3700    7.1990   12.4510 C.ar    1  LIG1        0.3780
     23 C          16.5320    7.3960   11.6710 C.ar    1  LIG1       -0.0542
     24 C          16.4410    8.0690   10.4420 C.ar    1  LIG1       -0.0990
     25 H          17.3120    8.2270    9.8100 H       1  LIG1        0.1412
     26 C          15.2180    8.5590    9.9720 C.ar    1  LIG1       -0.3135
     27 H          15.2080    9.0700    9.0130 H       1  LIG1        0.1269
     28 C          14.0670    8.3830   10.7270 C.ar    1  LIG1        0.3622
     29 C          14.1540    7.7090   11.9500 C.ar    1  LIG1       -0.4106
     30 H          13.2420    7.5740   12.5310 H       1  LIG1        0.1740
     31 O          12.8120    8.8100   10.3920 O.3     1  LIG1       -0.2986
     32 C          12.6780    9.4950    9.1470 C.3     1  LIG1        0.0585
     33 H          11.6240    9.7660    9.0310 H       1  LIG1        0.0526
     34 H          12.9510    8.8440    8.3100 H       1  LIG1        0.0299
     35 H          13.2640   10.4190    9.1400 H       1  LIG1        0.0247
     36 O          17.7140    6.9010   12.1620 O.3     1  LIG1       -0.2737
     37 C          18.8810    7.0410   11.3550 C.3     1  LIG1        0.0383
     38 H          19.7350    6.7050   11.9500 H       1  LIG1        0.0468
     39 H          19.0540    8.0890   11.0860 H       1  LIG1        0.0292
     40 H          18.8210    6.4040   10.4680 H       1  LIG1        0.0382
     41 N           9.8550    1.5400   11.5210 N.pl3   1  LIG1       -0.8939
     42 H           8.8740    1.6320   11.7630 H       1  LIG1        0.3840
     43 H          10.0840    0.8290   10.8370 H       1  LIG1        0.3950
@<TRIPOS>BOND
     1     2     1    1
     2     1     3   ar
     3     3     4   ar
     4     4     5   ar
     5     5     6   ar
     6     6     7   ar
     7     7     1   ar
     8     7     8    2
     9     6     9   ar
    10     9    10   ar
    11    10    11   ar
    12    11    12    1
    13    11     5   ar
    14    10    13    1
    15    13    14    1
    16    13    15    1
    17    13    16    1
    18     9    17    1
    19    17    18    1
    20    17    19    1
    21    17    20    1
    22    20    21    1
    23    20    22    1
    24    22    23   ar
    25    23    24   ar
    26    24    25    1
    27    24    26   ar
    28    26    27    1
    29    26    28   ar
    30    28    29   ar
    31    29    30    1
    32    29    22   ar
    33    28    31    1
    34    31    32    1
    35    32    33    1
    36    32    34    1
    37    32    35    1
    38    23    36    1
    39    36    37    1
    40    37    38    1
    41    37    39    1
    42    37    40    1
    43     3    41    1
    44    41    42    1
    45    41    43    1
