@<TRIPOS>MOLECULE
43_8
 43 45 0 0 0
SMALL
USER_CHARGES
****
From 3DB ct
@<TRIPOS>ATOM
      1 N          12.0860    2.1600   11.7020 N.ar    1  LIG1       -0.7554
      2 H          12.2800    1.4300   11.0330 H       1  LIG1        0.3392
      3 C          10.7800    2.3740   12.0970 C.ar    1  LIG1        0.8764
      4 N          10.4330    3.2910   12.9610 N.ar    1  LIG1       -0.6436
      5 C          11.4720    4.0170   13.4380 C.ar    1  LIG1        0.4620
      6 C          12.8050    3.8980   13.1200 C.ar    1  LIG1       -0.5366
      7 C          13.1740    2.8770   12.1650 C.ar    1  LIG1        0.7640
      8 O          14.3270    2.6570   11.8000 O.2     1  LIG1       -0.4723
      9 C          13.5290    4.8730   13.8690 C.ar    1  LIG1       -0.0850
     10 C          12.5800    5.5520   14.6320 C.ar    1  LIG1        0.1150
     11 N          11.3380    5.0210   14.3530 N.ar    1  LIG1       -0.4304
     12 H          10.4590    5.3190   14.7600 H       1  LIG1        0.3672
     13 C          12.7380    6.6720   15.5990 C.3     1  LIG1       -0.1675
     14 H          12.8560    7.6180   15.0620 H       1  LIG1        0.0652
     15 H          13.6210    6.5190   16.2280 H       1  LIG1        0.0684
     16 H          11.8680    6.7560   16.2570 H       1  LIG1        0.0546
     17 C          15.0150    5.1180   13.8520 C.3     1  LIG1        0.3152
     18 H          15.4780    4.5070   13.0720 H       1  LIG1        0.0320
     19 H          15.4150    4.7650   14.8110 H       1  LIG1       -0.0120
     20 N          15.3970    6.5090   13.6550 N.pl3   1  LIG1       -0.6583
     21 H          15.7930    6.9810   14.4650 H       1  LIG1        0.3164
     22 C          15.3280    7.1850   12.4530 C.ar    1  LIG1        0.4536
     23 C          16.4400    7.4150   11.6340 C.ar    1  LIG1       -0.5038
     24 H          17.4250    7.0610   11.9310 H       1  LIG1        0.1655
     25 C          16.3270    8.0950   10.4160 C.ar    1  LIG1        0.3889
     26 C          15.0810    8.5660   10.0080 C.ar    1  LIG1       -0.4437
     27 H          14.9530    9.1030    9.0730 H       1  LIG1        0.1546
     28 C          13.9540    8.3540   10.8050 C.ar    1  LIG1        0.4052
     29 C          14.0830    7.6650   12.0150 C.ar    1  LIG1       -0.4125
     30 H          13.2160    7.4900   12.6460 H       1  LIG1        0.1592
     31 O          12.7930    8.8680   10.2920 O.3     1  LIG1       -0.2923
     32 C          12.8750    9.5200    9.0250 C.3     1  LIG1       -0.0086
     33 H          11.8730    9.8810    8.7740 H       1  LIG1        0.0683
     34 H          13.1850    8.8220    8.2410 H       1  LIG1        0.0516
     35 H          13.5400   10.3870    9.0730 H       1  LIG1        0.0485
     36 O          17.5010    8.2340    9.7260 O.3     1  LIG1       -0.3090
     37 C          18.6780    7.7260   10.3540 C.3     1  LIG1        0.0858
     38 H          19.5250    7.9440    9.6960 H       1  LIG1        0.0434
     39 H          18.6190    6.6390   10.4750 H       1  LIG1        0.0262
     40 H          18.8600    8.2240   11.3110 H       1  LIG1        0.0185
     41 N           9.8510    1.5740   11.5350 N.pl3   1  LIG1       -0.8943
     42 H           8.8710    1.6810   11.7750 H       1  LIG1        0.3858
     43 H          10.0690    0.8530   10.8580 H       1  LIG1        0.3944
@<TRIPOS>BOND
     1     2     1    1
     2     1     3   ar
     3     3     4   ar
     4     4     5   ar
     5     5     6   ar
     6     6     7   ar
     7     7     1   ar
     8     7     8    2
     9     6     9   ar
    10     9    10   ar
    11    10    11   ar
    12    11    12    1
    13    11     5   ar
    14    10    13    1
    15    13    14    1
    16    13    15    1
    17    13    16    1
    18     9    17    1
    19    17    18    1
    20    17    19    1
    21    17    20    1
    22    20    21    1
    23    20    22    1
    24    22    23   ar
    25    23    24    1
    26    23    25   ar
    27    25    26   ar
    28    26    27    1
    29    26    28   ar
    30    28    29   ar
    31    29    30    1
    32    29    22   ar
    33    28    31    1
    34    31    32    1
    35    32    33    1
    36    32    34    1
    37    32    35    1
    38    25    36    1
    39    36    37    1
    40    37    38    1
    41    37    39    1
    42    37    40    1
    43     3    41    1
    44    41    42    1
    45    41    43    1
