@<TRIPOS>MOLECULE
44_3
 39 41 0 0 0
SMALL
USER_CHARGES
****
From 3DB ct
@<TRIPOS>ATOM
      1 N          10.2630    2.6570   13.0270 N.ar    1  LIG1       -0.6958
      2 C          10.8720    1.8730   12.1170 C.ar    1  LIG1        0.7507
      3 N          12.1180    2.0260   11.6430 N.ar    1  LIG1       -0.6217
      4 C          12.7390    3.0830   12.1840 C.ar    1  LIG1        0.4453
      5 C          12.2360    3.9620   13.1210 C.ar    1  LIG1       -0.4050
      6 C          10.9230    3.7200   13.5530 C.ar    1  LIG1        0.7341
      7 N          10.2740    4.5000   14.4810 N.pl3   1  LIG1       -0.7756
      8 H          10.7390    5.3010   14.8940 H       1  LIG1        0.3670
      9 H           9.3260    4.2780   14.7560 H       1  LIG1        0.3523
     10 N          13.1750    4.9230   13.4380 N.ar    1  LIG1       -0.2748
     11 C          14.2450    4.6420   12.7030 C.ar    1  LIG1        0.3605
     12 N          14.0070    3.5220   11.9280 N.ar    1  LIG1       -0.5102
     13 H          14.6530    3.0870   11.2870 H       1  LIG1        0.3564
     14 C          15.5060    5.3990   12.7090 C.ar    1  LIG1       -0.0112
     15 C          16.5490    5.1240   11.8140 C.ar    1  LIG1       -0.2643
     16 H          16.4670    4.3350   11.0720 H       1  LIG1        0.1227
     17 C          17.7240    5.8780   11.8520 C.ar    1  LIG1        0.2590
     18 C          17.8950    6.8790   12.8130 C.ar    1  LIG1       -0.1172
     19 C          16.8570    7.1900   13.7010 C.ar    1  LIG1        0.3603
     20 C          15.6740    6.4440   13.6420 C.ar    1  LIG1       -0.2527
     21 H          14.8520    6.6530   14.3240 H       1  LIG1        0.1370
     22 O          17.0990    8.2180   14.5760 O.3     1  LIG1       -0.2838
     23 C          18.3670    8.8640   14.4890 C.3     1  LIG1        0.0219
     24 H          18.3950    9.6450   15.2540 H       1  LIG1        0.0555
     25 H          18.4970    9.3460   13.5140 H       1  LIG1        0.0564
     26 H          19.1810    8.1620   14.6990 H       1  LIG1        0.0496
     27 O          19.0630    7.6050   12.8400 O.3     1  LIG1       -0.2387
     28 C          19.9660    7.1050   11.8480 C.3     1  LIG1        0.0005
     29 H          20.8870    7.6930   11.9100 H       1  LIG1        0.0465
     30 H          19.5550    7.2250   10.8400 H       1  LIG1        0.0521
     31 H          20.2200    6.0560   12.0340 H       1  LIG1        0.0572
     32 O          18.7280    5.5610   10.9730 O.3     1  LIG1       -0.2292
     33 C          18.3000    4.5100   10.1000 C.3     1  LIG1       -0.0477
     34 H          19.1340    4.2710    9.4330 H       1  LIG1        0.0824
     35 H          17.4510    4.8260    9.4830 H       1  LIG1        0.0573
     36 H          18.0460    3.6070   10.6650 H       1  LIG1        0.0570
     37 N          10.1520    0.8230   11.6310 N.pl3   1  LIG1       -0.7909
     38 H          10.5660    0.2060   10.9490 H       1  LIG1        0.3682
     39 H           9.2110    0.6690   11.9610 H       1  LIG1        0.3688
@<TRIPOS>BOND
     1     1     2   ar
     2     2     3   ar
     3     3     4   ar
     4     4     5   ar
     5     5     6   ar
     6     6     1   ar
     7     6     7    1
     8     7     8    1
     9     7     9    1
    10     5    10   ar
    11    10    11   ar
    12    11    12   ar
    13    12    13    1
    14    12     4   ar
    15    11    14    1
    16    14    15   ar
    17    15    16    1
    18    15    17   ar
    19    17    18   ar
    20    18    19   ar
    21    19    20   ar
    22    20    21    1
    23    20    14   ar
    24    19    22    1
    25    22    23    1
    26    23    24    1
    27    23    25    1
    28    23    26    1
    29    18    27    1
    30    27    28    1
    31    28    29    1
    32    28    30    1
    33    28    31    1
    34    17    32    1
    35    32    33    1
    36    33    34    1
    37    33    35    1
    38    33    36    1
    39     2    37    1
    40    37    38    1
    41    37    39    1
