@<TRIPOS>MOLECULE
44_6
 39 41 0 0 0
SMALL
USER_CHARGES
****
From 3DB ct
@<TRIPOS>ATOM
      1 N          10.2640    2.6570   13.0280 N.ar    1  LIG1       -0.7084
      2 C          10.8730    1.8730   12.1170 C.ar    1  LIG1        0.7593
      3 N          12.1180    2.0250   11.6430 N.ar    1  LIG1       -0.6219
      4 C          12.7390    3.0830   12.1840 C.ar    1  LIG1        0.4328
      5 C          12.2370    3.9630   13.1200 C.ar    1  LIG1       -0.4390
      6 C          10.9240    3.7200   13.5540 C.ar    1  LIG1        0.7710
      7 N          10.2740    4.5000   14.4810 N.pl3   1  LIG1       -0.8037
      8 H          10.7390    5.3010   14.8930 H       1  LIG1        0.3711
      9 H           9.3270    4.2780   14.7570 H       1  LIG1        0.3583
     10 N          13.1740    4.9250   13.4370 N.ar    1  LIG1       -0.2463
     11 C          14.2430    4.6400   12.7050 C.ar    1  LIG1        0.3243
     12 N          14.0060    3.5220   11.9270 N.ar    1  LIG1       -0.4615
     13 H          14.6610    3.0900   11.2910 H       1  LIG1        0.3398
     14 C          15.5140    5.3760   12.6860 C.ar    1  LIG1       -0.1388
     15 C          16.5510    4.9650   11.8310 C.ar    1  LIG1       -0.1866
     16 H          16.4180    4.1110   11.1690 H       1  LIG1        0.1464
     17 C          17.7620    5.6640   11.7870 C.ar    1  LIG1        0.1143
     18 C          17.9860    6.7480   12.6410 C.ar    1  LIG1        0.2631
     19 C          16.9570    7.1860   13.4720 C.ar    1  LIG1       -0.3520
     20 H          17.1230    8.0340   14.1320 H       1  LIG1        0.1831
     21 C          15.7270    6.5140   13.4860 C.ar    1  LIG1        0.2826
     22 O          14.7640    6.9220   14.3770 O.3     1  LIG1       -0.2986
     23 C          15.0960    8.0190   15.2360 C.3     1  LIG1        0.0764
     24 H          14.1710    8.3630   15.7080 H       1  LIG1        0.0492
     25 H          15.5220    8.8570   14.6730 H       1  LIG1        0.0177
     26 H          15.7820    7.6990   16.0270 H       1  LIG1        0.0262
     27 O          19.1480    7.4710   12.6940 O.3     1  LIG1       -0.2733
     28 C          20.1660    6.9740   11.8200 C.3     1  LIG1        0.0174
     29 H          21.1340    7.2260   12.2640 H       1  LIG1        0.0605
     30 H          20.1060    7.4730   10.8480 H       1  LIG1        0.0451
     31 H          20.1230    5.8860   11.7020 H       1  LIG1        0.0494
     32 O          18.7180    5.2190   10.9120 O.3     1  LIG1       -0.2594
     33 C          18.2150    4.1020   10.1680 C.3     1  LIG1        0.0102
     34 H          19.0140    3.7590    9.5030 H       1  LIG1        0.0615
     35 H          17.3590    4.3890    9.5490 H       1  LIG1        0.0421
     36 H          17.9470    3.2740   10.8330 H       1  LIG1        0.0463
     37 N          10.1520    0.8240   11.6310 N.pl3   1  LIG1       -0.7975
     38 H          10.5650    0.2070   10.9470 H       1  LIG1        0.3683
     39 H           9.2100    0.6700   11.9590 H       1  LIG1        0.3706
@<TRIPOS>BOND
     1     1     2   ar
     2     2     3   ar
     3     3     4   ar
     4     4     5   ar
     5     5     6   ar
     6     6     1   ar
     7     6     7    1
     8     7     8    1
     9     7     9    1
    10     5    10   ar
    11    10    11   ar
    12    11    12   ar
    13    12    13    1
    14    12     4   ar
    15    11    14    1
    16    14    15   ar
    17    15    16    1
    18    15    17   ar
    19    17    18   ar
    20    18    19   ar
    21    19    20    1
    22    19    21   ar
    23    21    14   ar
    24    21    22    1
    25    22    23    1
    26    23    24    1
    27    23    25    1
    28    23    26    1
    29    18    27    1
    30    27    28    1
    31    28    29    1
    32    28    30    1
    33    28    31    1
    34    17    32    1
    35    32    33    1
    36    33    34    1
    37    33    35    1
    38    33    36    1
    39     2    37    1
    40    37    38    1
    41    37    39    1
