@<TRIPOS>MOLECULE
44_8
 35 37 0 0 0
SMALL
USER_CHARGES
****
From 3DB ct
@<TRIPOS>ATOM
      1 N          10.2630    2.6570   13.0270 N.ar    1  LIG1       -0.6961
      2 C          10.8720    1.8730   12.1170 C.ar    1  LIG1        0.7507
      3 N          12.1180    2.0250   11.6440 N.ar    1  LIG1       -0.6222
      4 C          12.7390    3.0830   12.1850 C.ar    1  LIG1        0.4473
      5 C          12.2360    3.9620   13.1210 C.ar    1  LIG1       -0.4064
      6 C          10.9240    3.7190   13.5540 C.ar    1  LIG1        0.7345
      7 N          10.2740    4.5000   14.4810 N.pl3   1  LIG1       -0.7768
      8 H          10.7380    5.3010   14.8930 H       1  LIG1        0.3674
      9 H           9.3260    4.2780   14.7560 H       1  LIG1        0.3528
     10 N          13.1750    4.9230   13.4370 N.ar    1  LIG1       -0.2751
     11 C          14.2450    4.6430   12.7020 C.ar    1  LIG1        0.3585
     12 N          14.0070    3.5220   11.9290 N.ar    1  LIG1       -0.5127
     13 H          14.6520    3.0880   11.2850 H       1  LIG1        0.3580
     14 C          15.5050    5.4020   12.7050 C.ar    1  LIG1        0.0223
     15 C          16.5630    5.1090   11.8330 C.ar    1  LIG1       -0.2949
     16 H          16.4840    4.2980   11.1120 H       1  LIG1        0.1188
     17 C          17.7490    5.8510   11.8590 C.ar    1  LIG1        0.3645
     18 C          17.8820    6.9000   12.7670 C.ar    1  LIG1       -0.4141
     19 H          18.7890    7.4970   12.8160 H       1  LIG1        0.1519
     20 C          16.8410    7.2120   13.6470 C.ar    1  LIG1        0.4175
     21 C          15.6610    6.4660   13.6110 C.ar    1  LIG1       -0.2864
     22 H          14.8380    6.6930   14.2850 H       1  LIG1        0.1381
     23 O          17.1000    8.2620   14.4860 O.3     1  LIG1       -0.2927
     24 C          18.3750    8.8910   14.3590 C.3     1  LIG1        0.0092
     25 H          18.4170    9.7070   15.0860 H       1  LIG1        0.0689
     26 H          18.5020    9.3260   13.3620 H       1  LIG1        0.0454
     27 H          19.1830    8.1910   14.5940 H       1  LIG1        0.0466
     28 O          18.6920    5.4510   10.9510 O.3     1  LIG1       -0.2870
     29 C          18.3510    4.3490   10.1110 C.3     1  LIG1        0.0112
     30 H          19.2020    4.1590    9.4500 H       1  LIG1        0.0704
     31 H          17.4870    4.5870    9.4820 H       1  LIG1        0.0420
     32 H          18.1780    3.4430   10.7010 H       1  LIG1        0.0426
     33 N          10.1510    0.8240   11.6300 N.pl3   1  LIG1       -0.7913
     34 H          10.5640    0.2080   10.9450 H       1  LIG1        0.3682
     35 H           9.2090    0.6710   11.9580 H       1  LIG1        0.3688
@<TRIPOS>BOND
     1     1     2   ar
     2     2     3   ar
     3     3     4   ar
     4     4     5   ar
     5     5     6   ar
     6     6     1   ar
     7     6     7    1
     8     7     8    1
     9     7     9    1
    10     5    10   ar
    11    10    11   ar
    12    11    12   ar
    13    12    13    1
    14    12     4   ar
    15    11    14    1
    16    14    15   ar
    17    15    16    1
    18    15    17   ar
    19    17    18   ar
    20    18    19    1
    21    18    20   ar
    22    20    21   ar
    23    21    22    1
    24    21    14   ar
    25    20    23    1
    26    23    24    1
    27    24    25    1
    28    24    26    1
    29    24    27    1
    30    17    28    1
    31    28    29    1
    32    29    30    1
    33    29    31    1
    34    29    32    1
    35     2    33    1
    36    33    34    1
    37    33    35    1
