@<TRIPOS>MOLECULE
44_9
 35 37 0 0 0
SMALL
USER_CHARGES
****
From 3DB ct
@<TRIPOS>ATOM
      1 N          10.2630    2.6580   13.0270 N.ar    1  LIG1       -0.6942
      2 C          10.8720    1.8730   12.1160 C.ar    1  LIG1        0.7438
      3 N          12.1180    2.0260   11.6430 N.ar    1  LIG1       -0.6188
      4 C          12.7390    3.0830   12.1840 C.ar    1  LIG1        0.4433
      5 C          12.2360    3.9620   13.1210 C.ar    1  LIG1       -0.4012
      6 C          10.9230    3.7190   13.5530 C.ar    1  LIG1        0.7338
      7 N          10.2740    4.4990   14.4810 N.pl3   1  LIG1       -0.7817
      8 H          10.7390    5.2980   14.8970 H       1  LIG1        0.3688
      9 H           9.3250    4.2770   14.7560 H       1  LIG1        0.3535
     10 N          13.1740    4.9240   13.4370 N.ar    1  LIG1       -0.2806
     11 C          14.2460    4.6410   12.7040 C.ar    1  LIG1        0.3416
     12 N          14.0070    3.5230   11.9280 N.ar    1  LIG1       -0.5030
     13 H          14.6490    3.0950   11.2780 H       1  LIG1        0.3524
     14 C          15.5060    5.3980   12.7080 C.ar    1  LIG1       -0.0281
     15 C          16.6130    5.0310   11.9300 C.ar    1  LIG1       -0.1530
     16 H          16.5850    4.1560   11.2840 H       1  LIG1        0.1248
     17 C          17.7990    5.7830   11.9510 C.ar    1  LIG1       -0.2083
     18 H          18.6170    5.4490   11.3180 H       1  LIG1        0.1330
     19 C          17.9060    6.9160   12.7570 C.ar    1  LIG1        0.1643
     20 C          16.8100    7.2700   13.5540 C.ar    1  LIG1        0.1999
     21 C          15.6200    6.5360   13.5190 C.ar    1  LIG1       -0.1703
     22 H          14.7790    6.8570   14.1320 H       1  LIG1        0.1299
     23 O          16.8530    8.3930   14.3440 O.3     1  LIG1       -0.2668
     24 C          18.1460    9.0030   14.2480 C.3     1  LIG1        0.0240
     25 H          18.1430    9.8930   14.8830 H       1  LIG1        0.0578
     26 H          18.3600    9.3190   13.2210 H       1  LIG1        0.0388
     27 H          18.9280    8.3280   14.6110 H       1  LIG1        0.0377
     28 O          19.0060    7.7280   12.8420 O.3     1  LIG1       -0.2333
     29 C          20.1300    7.3810   12.0360 C.3     1  LIG1       -0.0495
     30 H          20.9090    8.1290   12.2130 H       1  LIG1        0.0769
     31 H          19.8760    7.4100   10.9710 H       1  LIG1        0.0603
     32 H          20.5330    6.4040   12.3230 H       1  LIG1        0.0586
     33 N          10.1520    0.8230   11.6320 N.pl3   1  LIG1       -0.7891
     34 H          10.5670    0.2040   10.9510 H       1  LIG1        0.3672
     35 H           9.2110    0.6680   11.9630 H       1  LIG1        0.3678
@<TRIPOS>BOND
     1     1     2   ar
     2     2     3   ar
     3     3     4   ar
     4     4     5   ar
     5     5     6   ar
     6     6     1   ar
     7     6     7    1
     8     7     8    1
     9     7     9    1
    10     5    10   ar
    11    10    11   ar
    12    11    12   ar
    13    12    13    1
    14    12     4   ar
    15    11    14    1
    16    14    15   ar
    17    15    16    1
    18    15    17   ar
    19    17    18    1
    20    17    19   ar
    21    19    20   ar
    22    20    21   ar
    23    21    22    1
    24    21    14   ar
    25    20    23    1
    26    23    24    1
    27    24    25    1
    28    24    26    1
    29    24    27    1
    30    19    28    1
    31    28    29    1
    32    29    30    1
    33    29    31    1
    34    29    32    1
    35     2    33    1
    36    33    34    1
    37    33    35    1
