@<TRIPOS>MOLECULE
6_15
 23 24 0 0 0
SMALL
USER_CHARGES
****
From 3DB ct
@<TRIPOS>ATOM
      1 N          10.1260    2.6210   12.8790 N.ar    1  LIG1       -0.6625
      2 C          10.7260    1.9700   11.8820 C.ar    1  LIG1        0.8140
      3 N          12.0020    2.1320   11.5330 N.ar    1  LIG1       -0.6873
      4 C          12.7300    3.0180   12.2250 C.ar    1  LIG1        0.5365
      5 C          12.2080    3.7570   13.2890 C.ar    1  LIG1       -0.4854
      6 C          10.8660    3.4890   13.5850 C.ar    1  LIG1        0.6664
      7 N          10.1890    4.1550   14.5920 N.pl3   1  LIG1       -0.7436
      8 H          10.6790    4.3400   15.4620 H       1  LIG1        0.3402
      9 H           9.2180    3.8810   14.7090 H       1  LIG1        0.3311
     10 C          13.0330    4.6940   13.9700 C.ar    1  LIG1        0.1640
     11 H          12.6210    5.2800   14.7920 H       1  LIG1        0.0872
     12 C          14.3710    4.8900   13.6040 C.ar    1  LIG1       -0.4315
     13 C          14.8780    4.1360   12.5440 C.ar    1  LIG1        0.0743
     14 H          15.9130    4.2540   12.2240 H       1  LIG1        0.1029
     15 C          14.0600    3.2190   11.8720 C.ar    1  LIG1       -0.2769
     16 H          14.4820    2.6480   11.0460 H       1  LIG1        0.1458
     17 C          15.2240    5.8910   14.3430 C.3     1  LIG1        1.0736
     18 F          15.3370    5.6090   15.6770 F       1  LIG1       -0.3368
     19 F          14.7260    7.1630   14.2790 F       1  LIG1       -0.3317
     20 F          16.5080    5.9810   13.8820 F       1  LIG1       -0.3227
     21 N           9.9850    1.0790   11.1700 N.pl3   1  LIG1       -0.8162
     22 H          10.4100    0.5700   10.4090 H       1  LIG1        0.3858
     23 H           9.0150    0.9320   11.4070 H       1  LIG1        0.3728
@<TRIPOS>BOND
     1     1     2   ar
     2     2     3   ar
     3     3     4   ar
     4     4     5   ar
     5     5     6   ar
     6     6     1   ar
     7     6     7    1
     8     7     8    1
     9     7     9    1
    10     5    10   ar
    11    10    11    1
    12    10    12   ar
    13    12    13   ar
    14    13    14    1
    15    13    15   ar
    16    15    16    1
    17    15     4   ar
    18    12    17    1
    19    17    18    1
    20    17    19    1
    21    17    20    1
    22     2    21    1
    23    21    22    1
    24    21    23    1
