@<TRIPOS>MOLECULE
6_16
 20 21 0 0 0
SMALL
USER_CHARGES
****
From 3DB ct
@<TRIPOS>ATOM
      1 N          10.1230    2.6210   12.8710 N.ar    1  LIG1       -0.6826
      2 C          10.7280    1.9770   11.8730 C.ar    1  LIG1        0.8067
      3 N          12.0060    2.1400   11.5310 N.ar    1  LIG1       -0.6630
      4 C          12.7320    3.0190   12.2320 C.ar    1  LIG1        0.4454
      5 C          12.2020    3.7510   13.3020 C.ar    1  LIG1       -0.4369
      6 C          10.8590    3.4830   13.5890 C.ar    1  LIG1        0.7083
      7 N          10.1770    4.1440   14.5960 N.pl3   1  LIG1       -0.7603
      8 H          10.6630    4.3290   15.4670 H       1  LIG1        0.3394
      9 H           9.2050    3.8690   14.7070 H       1  LIG1        0.3311
     10 C          13.0170    4.6790   13.9960 C.ar    1  LIG1       -0.1245
     11 H          12.6240    5.2660   14.8210 H       1  LIG1        0.1383
     12 C          14.3410    4.8550   13.6220 C.ar    1  LIG1        0.2894
     13 C          14.8760    4.1300   12.5710 C.ar    1  LIG1       -0.1631
     14 H          15.9130    4.2710   12.2820 H       1  LIG1        0.1506
     15 C          14.0650    3.2200   11.8860 C.ar    1  LIG1       -0.1968
     16 H          14.4910    2.6570   11.0580 H       1  LIG1        0.1421
     17 F          15.1070    5.7330   14.2820 F       1  LIG1       -0.2547
     18 N           9.9900    1.0910   11.1500 N.pl3   1  LIG1       -0.8254
     19 H          10.4190    0.5880   10.3880 H       1  LIG1        0.3807
     20 H           9.0190    0.9430   11.3820 H       1  LIG1        0.3754
@<TRIPOS>BOND
     1     1     2   ar
     2     2     3   ar
     3     3     4   ar
     4     4     5   ar
     5     5     6   ar
     6     6     1   ar
     7     6     7    1
     8     7     8    1
     9     7     9    1
    10     5    10   ar
    11    10    11    1
    12    10    12   ar
    13    12    13   ar
    14    13    14    1
    15    13    15   ar
    16    15    16    1
    17    15     4   ar
    18    12    17    1
    19     2    18    1
    20    18    19    1
    21    18    20    1
