@<TRIPOS>MOLECULE
6_22
 23 24 0 0 0
SMALL
USER_CHARGES
****
From 3DB ct
@<TRIPOS>ATOM
      1 N          10.1060    2.6290   12.8420 N.ar    1  LIG1       -0.6466
      2 C          10.7250    2.0020   11.8430 C.ar    1  LIG1        0.7995
      3 N          12.0180    2.1420   11.5460 N.ar    1  LIG1       -0.6688
      4 C          12.7430    2.9780   12.2980 C.ar    1  LIG1        0.4445
      5 C          12.2000    3.6890   13.3710 C.ar    1  LIG1       -0.3890
      6 C          10.8420    3.4490   13.6090 C.ar    1  LIG1        0.6375
      7 N          10.1460    4.0950   14.6160 N.pl3   1  LIG1       -0.7430
      8 H          10.6120    4.2450   15.5040 H       1  LIG1        0.3397
      9 H           9.1650    3.8430   14.6910 H       1  LIG1        0.3307
     10 C          13.0210    4.5730   14.1150 C.ar    1  LIG1        0.0161
     11 H          12.6080    5.1460   14.9440 H       1  LIG1        0.0939
     12 C          14.3690    4.7340   13.7960 C.ar    1  LIG1       -0.1227
     13 H          14.9800    5.4230   14.3790 H       1  LIG1        0.1198
     14 C          14.9240    4.0140   12.7350 C.ar    1  LIG1       -0.2556
     15 C          14.0910    3.1520   11.9980 C.ar    1  LIG1       -0.1114
     16 H          14.5120    2.5980   11.1590 H       1  LIG1        0.1353
     17 C          16.3720    4.1830   12.3530 C.3     1  LIG1        1.0673
     18 F          17.1680    4.6030   13.3830 F       1  LIG1       -0.3270
     19 F          16.5510    5.0990   11.3550 F       1  LIG1       -0.3272
     20 F          16.9510    3.0300   11.8990 F       1  LIG1       -0.3325
     21 N           9.9890    1.1590   11.0690 N.pl3   1  LIG1       -0.8172
     22 H          10.4280    0.6700   10.3030 H       1  LIG1        0.3851
     23 H           9.0070    1.0300   11.2640 H       1  LIG1        0.3717
@<TRIPOS>BOND
     1     1     2   ar
     2     2     3   ar
     3     3     4   ar
     4     4     5   ar
     5     5     6   ar
     6     6     1   ar
     7     6     7    1
     8     7     8    1
     9     7     9    1
    10     5    10   ar
    11    10    11    1
    12    10    12   ar
    13    12    13    1
    14    12    14   ar
    15    14    15   ar
    16    15    16    1
    17    15     4   ar
    18    14    17    1
    19    17    18    1
    20    17    19    1
    21    17    20    1
    22     2    21    1
    23    21    22    1
    24    21    23    1
