@<TRIPOS>MOLECULE
6_23
 20 21 0 0 0
SMALL
USER_CHARGES
****
From 3DB ct
@<TRIPOS>ATOM
      1 N          10.1230    2.6200   12.8710 N.ar    1  LIG1       -0.6803
      2 C          10.7280    1.9760   11.8730 C.ar    1  LIG1        0.7989
      3 N          12.0070    2.1400   11.5300 N.ar    1  LIG1       -0.6658
      4 C          12.7330    3.0190   12.2320 C.ar    1  LIG1        0.5511
      5 C          12.2030    3.7510   13.3010 C.ar    1  LIG1       -0.5457
      6 C          10.8600    3.4830   13.5880 C.ar    1  LIG1        0.7158
      7 N          10.1770    4.1430   14.5950 N.pl3   1  LIG1       -0.7607
      8 H          10.6650    4.3320   15.4650 H       1  LIG1        0.3379
      9 H           9.2050    3.8670   14.7090 H       1  LIG1        0.3301
     10 C          13.0220    4.6800   13.9950 C.ar    1  LIG1        0.1204
     11 H          12.6200    5.2650   14.8210 H       1  LIG1        0.0900
     12 C          14.3510    4.8640   13.6270 C.ar    1  LIG1       -0.3870
     13 H          14.9820    5.5730   14.1550 H       1  LIG1        0.1689
     14 C          14.8590    4.1260   12.5720 C.ar    1  LIG1        0.5030
     15 C          14.0620    3.2170   11.8830 C.ar    1  LIG1       -0.4381
     16 H          14.4950    2.6590   11.0580 H       1  LIG1        0.1885
     17 F          16.1380    4.2910   12.2060 F       1  LIG1       -0.2621
     18 N           9.9910    1.0900   11.1500 N.pl3   1  LIG1       -0.8189
     19 H          10.4200    0.5870   10.3870 H       1  LIG1        0.3798
     20 H           9.0200    0.9410   11.3810 H       1  LIG1        0.3740
@<TRIPOS>BOND
     1     1     2   ar
     2     2     3   ar
     3     3     4   ar
     4     4     5   ar
     5     5     6   ar
     6     6     1   ar
     7     6     7    1
     8     7     8    1
     9     7     9    1
    10     5    10   ar
    11    10    11    1
    12    10    12   ar
    13    12    13    1
    14    12    14   ar
    15    14    15   ar
    16    15    16    1
    17    15     4   ar
    18    14    17    1
    19     2    18    1
    20    18    19    1
    21    18    20    1
