@<TRIPOS>MOLECULE
6_26
 20 21 0 0 0
SMALL
USER_CHARGES
****
From 3DB ct
@<TRIPOS>ATOM
      1 N          10.1200    2.6030   12.8700 N.ar    1  LIG1       -0.6004
      2 C          10.7320    1.9710   11.8760 C.ar    1  LIG1        0.7626
      3 N          12.0040    2.1620   11.5450 N.ar    1  LIG1       -0.6685
      4 C          12.7140    3.0440   12.2550 C.ar    1  LIG1        0.4384
      5 C          12.1980    3.7740   13.3360 C.ar    1  LIG1       -0.2019
      6 C          10.8410    3.4790   13.5940 C.ar    1  LIG1        0.5104
      7 N          10.1010    4.1230   14.5620 N.pl3   1  LIG1       -0.7534
      8 H          10.5630    4.4390   15.4080 H       1  LIG1        0.3747
      9 H           9.1390    3.8200   14.6680 H       1  LIG1        0.3494
     10 C          13.0720    4.6890   14.0210 C.ar    1  LIG1       -0.0596
     11 C          14.4040    4.8490   13.6070 C.ar    1  LIG1       -0.2833
     12 C          14.8820    4.1150   12.5310 C.ar    1  LIG1        0.1264
     13 H          15.9100    4.2220   12.1930 H       1  LIG1        0.0694
     14 C          14.0360    3.2240   11.8740 C.ar    1  LIG1       -0.2392
     15 H          14.4300    2.6550   11.0330 H       1  LIG1        0.1410
     16 CL         15.5110    5.9320   14.3800 Cl      1  LIG1        0.0606
     17 CL         12.5140    5.6080   15.3940 Cl      1  LIG1        0.0241
     18 N          10.0120    1.0750   11.1480 N.pl3   1  LIG1       -0.7933
     19 H          10.4520    0.5820   10.3860 H       1  LIG1        0.3820
     20 H           9.0430    0.9110   11.3750 H       1  LIG1        0.3605
@<TRIPOS>BOND
     1     1     2   ar
     2     2     3   ar
     3     3     4   ar
     4     4     5   ar
     5     5     6   ar
     6     6     1   ar
     7     6     7    1
     8     7     8    1
     9     7     9    1
    10     5    10   ar
    11    10    11   ar
    12    11    12   ar
    13    12    13    1
    14    12    14   ar
    15    14    15    1
    16    14     4   ar
    17    11    16    1
    18    10    17    1
    19     2    18    1
    20    18    19    1
    21    18    20    1
