@<TRIPOS>MOLECULE
6_7
 24 25 0 0 0
SMALL
USER_CHARGES
****
From 3DB ct
@<TRIPOS>ATOM
      1 N          10.1170    2.6150   12.8640 N.ar    1  LIG1       -0.7216
      2 C          10.7280    1.9750   11.8720 C.ar    1  LIG1        0.8524
      3 N          12.0040    2.1520   11.5380 N.ar    1  LIG1       -0.7164
      4 C          12.7200    3.0350   12.2440 C.ar    1  LIG1        0.5895
      5 C          12.1950    3.7820   13.3070 C.ar    1  LIG1       -0.6618
      6 C          10.8370    3.5090   13.5640 C.ar    1  LIG1        0.7657
      7 N          10.1520    4.0850   14.6150 N.pl3   1  LIG1       -0.7896
      8 H          10.4580    4.9950   14.9490 H       1  LIG1        0.3588
      9 H           9.1680    3.8600   14.7100 H       1  LIG1        0.3550
     10 C          13.0440    4.7130   13.9960 C.ar    1  LIG1        0.4450
     11 C          14.3800    4.8580   13.6130 C.ar    1  LIG1       -0.3604
     12 H          15.0560    5.5510   14.1050 H       1  LIG1        0.1371
     13 C          14.8820    4.1020   12.5620 C.ar    1  LIG1        0.0389
     14 H          15.9220    4.2110   12.2570 H       1  LIG1        0.1034
     15 C          14.0510    3.2070   11.8920 C.ar    1  LIG1       -0.3338
     16 H          14.4630    2.6260   11.0670 H       1  LIG1        0.1469
     17 O          12.4680    5.4410   15.0110 O.3     1  LIG1       -0.2765
     18 C          13.3030    6.3350   15.7460 C.3     1  LIG1       -0.0265
     19 H          12.6880    6.7980   16.5240 H       1  LIG1        0.0749
     20 H          13.6830    7.1350   15.1020 H       1  LIG1        0.0488
     21 H          14.1180    5.7970   16.2410 H       1  LIG1        0.0571
     22 N          10.0040    1.0760   11.1520 N.pl3   1  LIG1       -0.8534
     23 H          10.4420    0.5740   10.3930 H       1  LIG1        0.3874
     24 H           9.0340    0.9170   11.3800 H       1  LIG1        0.3790
@<TRIPOS>BOND
     1     1     2   ar
     2     2     3   ar
     3     3     4   ar
     4     4     5   ar
     5     5     6   ar
     6     6     1   ar
     7     6     7    1
     8     7     8    1
     9     7     9    1
    10     5    10   ar
    11    10    11   ar
    12    11    12    1
    13    11    13   ar
    14    13    14    1
    15    13    15   ar
    16    15    16    1
    17    15     4   ar
    18    10    17    1
    19    17    18    1
    20    18    19    1
    21    18    20    1
    22    18    21    1
    23     2    22    1
    24    22    23    1
    25    22    24    1
