@<TRIPOS>MOLECULE
8_3
 33 35 0 0 0
SMALL
USER_CHARGES
****
From 3DB ct
@<TRIPOS>ATOM
      1 N          10.1170    2.6020   12.8390 N.ar    1  LIG1       -0.6847
      2 C          10.7620    1.9860   11.8500 C.ar    1  LIG1        0.7994
      3 N          12.0430    2.1800   11.5450 N.ar    1  LIG1       -0.7169
      4 C          12.7310    3.0480   12.2720 C.ar    1  LIG1        0.8580
      5 C          12.1630    3.7430   13.3360 C.ar    1  LIG1       -0.7717
      6 C          10.8200    3.4600   13.5880 C.ar    1  LIG1        0.7451
      7 N          10.1040    4.0990   14.5850 N.pl3   1  LIG1       -0.7528
      8 H          10.5650    4.2850   15.4700 H       1  LIG1        0.3291
      9 H           9.1320    3.8160   14.6680 H       1  LIG1        0.3299
     10 C          12.9640    4.6610   14.0550 C.ar    1  LIG1        0.3026
     11 H          12.5390    5.2270   14.8820 H       1  LIG1        0.0796
     12 C          14.2960    4.8610   13.6990 C.ar    1  LIG1       -0.3492
     13 C          14.7630    4.1190   12.6290 C.ar    1  LIG1        0.3706
     14 H          15.7910    4.2170   12.2840 H       1  LIG1        0.0955
     15 N          14.0110    3.2300   11.9300 N.ar    1  LIG1       -0.5917
     16 C          15.1730    5.8510   14.4180 C.3     1  LIG1       -0.2141
     17 H          15.4310    5.4720   15.4130 H       1  LIG1        0.1409
     18 H          14.6190    6.7850   14.5520 H       1  LIG1        0.0860
     19 S          16.7060    6.1660   13.4680 S.3     1  LIG1       -0.0379
     20 C          16.1230    7.2020   12.1340 C.ar    1  LIG1       -0.0728
     21 C          17.0280    7.5010   11.1070 C.ar    1  LIG1        0.0564
     22 H          18.0500    7.1250   11.1420 H       1  LIG1        0.0720
     23 C          16.6410    8.2880   10.0200 C.ar    1  LIG1       -0.1900
     24 H          17.3560    8.5150    9.2310 H       1  LIG1        0.1213
     25 C          15.3410    8.7780    9.9450 C.ar    1  LIG1       -0.0421
     26 H          15.0370    9.3910    9.0980 H       1  LIG1        0.0960
     27 C          14.4280    8.4760   10.9530 C.ar    1  LIG1       -0.1334
     28 H          13.4080    8.8490   10.8900 H       1  LIG1        0.1079
     29 C          14.8160    7.6870   12.0400 C.ar    1  LIG1       -0.1055
     30 H          14.0680    7.4540   12.7950 H       1  LIG1        0.1200
     31 N          10.0600    1.0940   11.1000 N.pl3   1  LIG1       -0.7947
     32 H          10.5180    0.5950   10.3510 H       1  LIG1        0.3805
     33 H           9.0920    0.9080   11.3190 H       1  LIG1        0.3668
@<TRIPOS>BOND
     1     1     2   ar
     2     2     3   ar
     3     3     4   ar
     4     4     5   ar
     5     5     6   ar
     6     6     1   ar
     7     6     7    1
     8     7     8    1
     9     7     9    1
    10     5    10   ar
    11    10    11    1
    12    10    12   ar
    13    12    13   ar
    14    13    14    1
    15    13    15   ar
    16    15     4   ar
    17    12    16    1
    18    16    17    1
    19    16    18    1
    20    16    19    1
    21    19    20    1
    22    20    21   ar
    23    21    22    1
    24    21    23   ar
    25    23    24    1
    26    23    25   ar
    27    25    26    1
    28    25    27   ar
    29    27    28    1
    30    27    29   ar
    31    29    30    1
    32    29    20   ar
    33     2    31    1
    34    31    32    1
    35    31    33    1
