@<TRIPOS>MOLECULE
9_12k
 33 35 0 0 0
SMALL
USER_CHARGES
****
From 3DB ct
@<TRIPOS>ATOM
      1 N          10.1790    2.6470   12.9000 N.ar    1  LIG1       -0.6487
      2 C          10.7660    1.9930   11.9020 C.ar    1  LIG1        0.7567
      3 N          12.0330    2.1590   11.5360 N.ar    1  LIG1       -0.6671
      4 C          12.7620    3.0390   12.2150 C.ar    1  LIG1        0.6144
      5 C          12.2700    3.7900   13.2910 C.ar    1  LIG1       -0.3042
      6 C          10.9350    3.5230   13.5860 C.ar    1  LIG1        0.6167
      7 N          10.2770    4.2210   14.5910 N.pl3   1  LIG1       -0.7176
      8 H          10.8340    4.5550   15.3730 H       1  LIG1        0.3426
      9 H           9.3180    3.9530   14.7860 H       1  LIG1        0.3489
     10 N          13.0460    4.6880   13.9800 N.ar    1  LIG1       -0.2162
     11 C          14.3340    4.8190   13.5770 C.ar    1  LIG1        0.0753
     12 C          14.8030    4.0820   12.5050 C.ar    1  LIG1        0.2028
     13 H          15.8260    4.1860   12.1520 H       1  LIG1        0.0918
     14 N          14.0330    3.1910   11.8240 N.ar    1  LIG1       -0.4545
     15 C          15.2320    5.8110   14.2850 C.3     1  LIG1       -0.0517
     16 H          15.7130    5.3090   15.1340 H       1  LIG1        0.0827
     17 H          14.6130    6.6230   14.6840 H       1  LIG1        0.0921
     18 N          16.2300    6.3520   13.3690 N.pl3   1  LIG1       -0.5266
     19 H          17.1690    5.9640   13.4460 H       1  LIG1        0.3172
     20 C          15.9310    7.1180   12.2610 C.ar    1  LIG1        0.3642
     21 C          16.9440    7.3740   11.3230 C.ar    1  LIG1       -0.3990
     22 H          17.9370    6.9490   11.4630 H       1  LIG1        0.1371
     23 C          16.7140    8.1720   10.1970 C.ar    1  LIG1        0.2565
     24 H          17.5200    8.3460    9.4890 H       1  LIG1        0.0476
     25 C          15.4590    8.7370    9.9980 C.ar    1  LIG1       -0.5147
     26 C          14.4410    8.5100   10.9180 C.ar    1  LIG1        0.2097
     27 H          13.4570    8.9500   10.7750 H       1  LIG1        0.0516
     28 C          14.6810    7.7100   12.0430 C.ar    1  LIG1       -0.2673
     29 H          13.8600    7.5600   12.7400 H       1  LIG1        0.1151
     30 CL         15.1680    9.7210    8.6170 Cl      1  LIG1        0.0727
     31 N          10.0190    1.0930   11.2090 N.pl3   1  LIG1       -0.7599
     32 H          10.4320    0.5730   10.4490 H       1  LIG1        0.3716
     33 H           9.0550    0.9390   11.4660 H       1  LIG1        0.3601
@<TRIPOS>BOND
     1     1     2   ar
     2     2     3   ar
     3     3     4   ar
     4     4     5   ar
     5     5     6   ar
     6     6     1   ar
     7     6     7    1
     8     7     8    1
     9     7     9    1
    10     5    10   ar
    11    10    11   ar
    12    11    12   ar
    13    12    13    1
    14    12    14   ar
    15    14     4   ar
    16    11    15    1
    17    15    16    1
    18    15    17    1
    19    15    18    1
    20    18    19    1
    21    18    20    1
    22    20    21   ar
    23    21    22    1
    24    21    23   ar
    25    23    24    1
    26    23    25   ar
    27    25    26   ar
    28    26    27    1
    29    26    28   ar
    30    28    29    1
    31    28    20   ar
    32    25    30    1
    33     2    31    1
    34    31    32    1
    35    31    33    1
