@<TRIPOS>MOLECULE
9_12n
 41 43 0 0 0
SMALL
USER_CHARGES
****
From 3DB ct
@<TRIPOS>ATOM
      1 N          10.1780    2.6570   12.8990 N.ar    1  LIG1       -0.6558
      2 C          10.7590    2.0060   11.8950 C.ar    1  LIG1        0.7609
      3 N          12.0290    2.1610   11.5340 N.ar    1  LIG1       -0.6673
      4 C          12.7660    3.0270   12.2220 C.ar    1  LIG1        0.6116
      5 C          12.2790    3.7760   13.3020 C.ar    1  LIG1       -0.3178
      6 C          10.9410    3.5180   13.5940 C.ar    1  LIG1        0.6279
      7 N          10.2890    4.2120   14.6050 N.pl3   1  LIG1       -0.7199
      8 H          10.8480    4.5320   15.3910 H       1  LIG1        0.3446
      9 H           9.3280    3.9510   14.7960 H       1  LIG1        0.3493
     10 N          13.0620    4.6630   13.9980 N.ar    1  LIG1       -0.2207
     11 C          14.3520    4.7870   13.5960 C.ar    1  LIG1        0.1228
     12 C          14.8160    4.0500   12.5210 C.ar    1  LIG1        0.1992
     13 H          15.8400    4.1470   12.1690 H       1  LIG1        0.0904
     14 N          14.0390    3.1700   11.8350 N.ar    1  LIG1       -0.4582
     15 C          15.2570    5.7720   14.3070 C.3     1  LIG1       -0.1582
     16 H          15.7820    5.2400   15.1090 H       1  LIG1        0.0949
     17 H          14.6290    6.5490   14.7580 H       1  LIG1        0.1152
     18 N          16.2010    6.3700   13.3710 N.pl3   1  LIG1       -0.2884
     19 H          17.1650    6.0490   13.4540 H       1  LIG1        0.2512
     20 C          16.0250    7.1540   12.2390 C.ar    1  LIG1        0.0395
     21 C          14.7540    7.7450   12.0760 C.ar    1  LIG1       -0.2250
     22 H          13.9900    7.5850   12.8370 H       1  LIG1        0.1267
     23 C          14.4260    8.5310   10.9670 C.ar    1  LIG1        0.2901
     24 C          15.3820    8.7370    9.9830 C.ar    1  LIG1       -0.2772
     25 H          15.1840    9.3400    9.1000 H       1  LIG1        0.1299
     26 C          16.6490    8.1580   10.1080 C.ar    1  LIG1       -0.1248
     27 H          17.3600    8.3500    9.3080 H       1  LIG1        0.1246
     28 C          16.9810    7.3670   11.2190 C.ar    1  LIG1        0.0987
     29 O          18.2140    6.7860   11.3800 O.3     1  LIG1       -0.2486
     30 C          19.1870    6.9830   10.3570 C.3     1  LIG1       -0.0220
     31 H          20.0920    6.4420   10.6520 H       1  LIG1        0.0697
     32 H          19.4490    8.0410   10.2610 H       1  LIG1        0.0464
     33 H          18.8470    6.5650    9.4030 H       1  LIG1        0.0496
     34 O          13.1530    9.0300   10.9690 O.3     1  LIG1       -0.2896
     35 C          12.7780    9.8390    9.8540 C.3     1  LIG1        0.0236
     36 H          11.7400   10.1520   10.0050 H       1  LIG1        0.0642
     37 H          12.8230    9.2670    8.9210 H       1  LIG1        0.0398
     38 H          13.3950   10.7420    9.7990 H       1  LIG1        0.0378
     39 N          10.0030    1.1240   11.1890 N.pl3   1  LIG1       -0.7668
     40 H          10.4110    0.6120   10.4200 H       1  LIG1        0.3710
     41 H           9.0340    0.9850   11.4370 H       1  LIG1        0.3608
@<TRIPOS>BOND
     1     1     2   ar
     2     2     3   ar
     3     3     4   ar
     4     4     5   ar
     5     5     6   ar
     6     6     1   ar
     7     6     7    1
     8     7     8    1
     9     7     9    1
    10     5    10   ar
    11    10    11   ar
    12    11    12   ar
    13    12    13    1
    14    12    14   ar
    15    14     4   ar
    16    11    15    1
    17    15    16    1
    18    15    17    1
    19    15    18    1
    20    18    19    1
    21    18    20    1
    22    20    21   ar
    23    21    22    1
    24    21    23   ar
    25    23    24   ar
    26    24    25    1
    27    24    26   ar
    28    26    27    1
    29    26    28   ar
    30    28    20   ar
    31    28    29    1
    32    29    30    1
    33    30    31    1
    34    30    32    1
    35    30    33    1
    36    23    34    1
    37    34    35    1
    38    35    36    1
    39    35    37    1
    40    35    38    1
    41     2    39    1
    42    39    40    1
    43    39    41    1
