@<TRIPOS>MOLECULE
9_12g
 36 38 0 0 0
SMALL
USER_CHARGES
****
From 3DB ct
@<TRIPOS>ATOM
      1 N          10.1490    2.6010   12.8680 N.ar    1  LIG1       -0.6405
      2 C          10.7700    1.9650   11.8790 C.ar    1  LIG1        0.7519
      3 N          12.0410    2.1600   11.5400 N.ar    1  LIG1       -0.6722
      4 C          12.7360    3.0530   12.2370 C.ar    1  LIG1        0.6396
      5 C          12.2050    3.7890   13.3040 C.ar    1  LIG1       -0.3172
      6 C          10.8710    3.4900   13.5720 C.ar    1  LIG1        0.6025
      7 N          10.1780    4.1680   14.5670 N.pl3   1  LIG1       -0.7045
      8 H          10.7110    4.5100   15.3620 H       1  LIG1        0.3408
      9 H           9.2220    3.8780   14.7410 H       1  LIG1        0.3433
     10 N          12.9460    4.7020   14.0110 N.ar    1  LIG1       -0.2028
     11 C          14.2350    4.8730   13.6300 C.ar    1  LIG1        0.0818
     12 C          14.7460    4.1430   12.5710 C.ar    1  LIG1        0.2076
     13 H          15.7750    4.2660   12.2410 H       1  LIG1        0.1000
     14 N          14.0110    3.2350   11.8750 N.ar    1  LIG1       -0.4680
     15 C          15.0830    5.8810   14.3610 C.3     1  LIG1       -0.2648
     16 H          15.2600    5.5430   15.3880 H       1  LIG1        0.1283
     17 H          14.5410    6.8310   14.4130 H       1  LIG1        0.1098
     18 S          16.6850    6.1440   13.5100 S.3     1  LIG1       -0.0081
     19 C          16.1430    7.1730   12.1600 C.ar    1  LIG1       -0.2015
     20 C          14.8320    7.6510   12.0850 C.ar    1  LIG1        0.1403
     21 H          14.1050    7.4080   12.8590 H       1  LIG1        0.0763
     22 C          14.4210    8.4430   11.0040 C.ar    1  LIG1       -0.3944
     23 H          13.3920    8.7900   10.9940 H       1  LIG1        0.1605
     24 C          15.3190    8.7570    9.9840 C.ar    1  LIG1        0.4094
     25 C          16.6260    8.2710   10.0550 C.ar    1  LIG1       -0.2994
     26 H          17.3380    8.5040    9.2650 H       1  LIG1        0.1313
     27 C          17.0360    7.4790   11.1320 C.ar    1  LIG1       -0.0066
     28 H          18.0610    7.1120   11.1560 H       1  LIG1        0.1228
     29 O          15.0470    9.5150    8.8790 O.3     1  LIG1       -0.3114
     30 C          16.1170    9.7120    7.9570 C.3     1  LIG1        0.0555
     31 H          15.7410   10.3340    7.1390 H       1  LIG1        0.0598
     32 H          16.4480    8.7610    7.5290 H       1  LIG1        0.0304
     33 H          16.9480   10.2480    8.4280 H       1  LIG1        0.0278
     34 N          10.0570    1.0520   11.1660 N.pl3   1  LIG1       -0.7572
     35 H          10.4960    0.5470   10.4110 H       1  LIG1        0.3708
     36 H           9.0910    0.8760   11.4040 H       1  LIG1        0.3580
@<TRIPOS>BOND
     1     1     2   ar
     2     2     3   ar
     3     3     4   ar
     4     4     5   ar
     5     5     6   ar
     6     6     1   ar
     7     6     7    1
     8     7     8    1
     9     7     9    1
    10     5    10   ar
    11    10    11   ar
    12    11    12   ar
    13    12    13    1
    14    12    14   ar
    15    14     4   ar
    16    11    15    1
    17    15    16    1
    18    15    17    1
    19    15    18    1
    20    18    19    1
    21    19    20   ar
    22    20    21    1
    23    20    22   ar
    24    22    23    1
    25    22    24   ar
    26    24    25   ar
    27    25    26    1
    28    25    27   ar
    29    27    28    1
    30    27    19   ar
    31    24    29    1
    32    29    30    1
    33    30    31    1
    34    30    32    1
    35    30    33    1
    36     2    34    1
    37    34    35    1
    38    34    36    1
