@<TRIPOS>MOLECULE
9_12p
 41 43 0 0 0
SMALL
USER_CHARGES
****
From 3DB ct
@<TRIPOS>ATOM
      1 N          10.1790    2.6480   12.9000 N.ar    1  LIG1       -0.6541
      2 C          10.7650    1.9960   11.9000 C.ar    1  LIG1        0.7639
      3 N          12.0330    2.1590   11.5360 N.ar    1  LIG1       -0.6669
      4 C          12.7630    3.0360   12.2180 C.ar    1  LIG1        0.6022
      5 C          12.2710    3.7870   13.2930 C.ar    1  LIG1       -0.3020
      6 C          10.9360    3.5210   13.5880 C.ar    1  LIG1        0.6197
      7 N          10.2790    4.2180   14.5950 N.pl3   1  LIG1       -0.7167
      8 H          10.8370    4.5500   15.3770 H       1  LIG1        0.3435
      9 H           9.3200    3.9520   14.7890 H       1  LIG1        0.3495
     10 N          13.0470    4.6840   13.9840 N.ar    1  LIG1       -0.2240
     11 C          14.3360    4.8150   13.5810 C.ar    1  LIG1        0.1140
     12 C          14.8060    4.0760   12.5100 C.ar    1  LIG1        0.2101
     13 H          15.8290    4.1800   12.1570 H       1  LIG1        0.0803
     14 N          14.0350    3.1860   11.8290 N.ar    1  LIG1       -0.4533
     15 C          15.2320    5.8090   14.2870 C.3     1  LIG1       -0.1490
     16 H          15.7170    5.3100   15.1340 H       1  LIG1        0.0925
     17 H          14.6110    6.6200   14.6870 H       1  LIG1        0.1184
     18 N          16.2250    6.3550   13.3670 N.pl3   1  LIG1       -0.3810
     19 H          17.1680    5.9740   13.4480 H       1  LIG1        0.2786
     20 C          15.9270    7.1230   12.2580 C.ar    1  LIG1        0.3027
     21 C          16.9400    7.3770   11.3220 C.ar    1  LIG1       -0.4735
     22 H          17.9300    6.9450   11.4730 H       1  LIG1        0.1384
     23 C          16.7220    8.1730   10.1930 C.ar    1  LIG1        0.4411
     24 C          15.4650    8.7370    9.9940 C.ar    1  LIG1       -0.4829
     25 H          15.2520    9.3610    9.1300 H       1  LIG1        0.1523
     26 C          14.4380    8.5130   10.9150 C.ar    1  LIG1        0.4394
     27 C          14.6760    7.7150   12.0410 C.ar    1  LIG1       -0.4046
     28 H          13.8810    7.5440   12.7590 H       1  LIG1        0.1457
     29 O          13.2550    9.1290   10.6050 O.3     1  LIG1       -0.2927
     30 C          13.2210    9.9010    9.4050 C.3     1  LIG1       -0.0050
     31 H          12.2160   10.3240    9.3110 H       1  LIG1        0.0682
     32 H          13.4020    9.2720    8.5280 H       1  LIG1        0.0539
     33 H          13.9310   10.7330    9.4530 H       1  LIG1        0.0519
     34 O          17.8090    8.3200    9.3740 O.3     1  LIG1       -0.2964
     35 C          19.0060    7.6510    9.7690 C.3     1  LIG1        0.0381
     36 H          19.7700    7.8640    9.0150 H       1  LIG1        0.0599
     37 H          18.8590    6.5670    9.7990 H       1  LIG1        0.0374
     38 H          19.3700    8.0310   10.7290 H       1  LIG1        0.0356
     39 N          10.0150    1.1020   11.2010 N.pl3   1  LIG1       -0.7680
     40 H          10.4260    0.5890   10.4350 H       1  LIG1        0.3717
     41 H           9.0480    0.9550   11.4530 H       1  LIG1        0.3611
@<TRIPOS>BOND
     1     1     2   ar
     2     2     3   ar
     3     3     4   ar
     4     4     5   ar
     5     5     6   ar
     6     6     1   ar
     7     6     7    1
     8     7     8    1
     9     7     9    1
    10     5    10   ar
    11    10    11   ar
    12    11    12   ar
    13    12    13    1
    14    12    14   ar
    15    14     4   ar
    16    11    15    1
    17    15    16    1
    18    15    17    1
    19    15    18    1
    20    18    19    1
    21    18    20    1
    22    20    21   ar
    23    21    22    1
    24    21    23   ar
    25    23    24   ar
    26    24    25    1
    27    24    26   ar
    28    26    27   ar
    29    27    28    1
    30    27    20   ar
    31    26    29    1
    32    29    30    1
    33    30    31    1
    34    30    32    1
    35    30    33    1
    36    23    34    1
    37    34    35    1
    38    35    36    1
    39    35    37    1
    40    35    38    1
    41     2    39    1
    42    39    40    1
    43    39    41    1
