@<TRIPOS>MOLECULE
9_12m
 40 42 0 0 0
SMALL
USER_CHARGES
****
From 3DB ct
@<TRIPOS>ATOM
      1 N          10.1850    2.6300   12.9010 N.ar    1  LIG1       -0.6537
      2 C          10.7830    1.9740   11.9100 C.ar    1  LIG1        0.7453
      3 N          12.0480    2.1550   11.5440 N.ar    1  LIG1       -0.6599
      4 C          12.7620    3.0560   12.2120 C.ar    1  LIG1        0.6070
      5 C          12.2540    3.8170   13.2740 C.ar    1  LIG1       -0.3106
      6 C          10.9250    3.5270   13.5760 C.ar    1  LIG1        0.6445
      7 N          10.2570    4.2220   14.5770 N.pl3   1  LIG1       -0.7423
      8 H          10.8100    4.5700   15.3550 H       1  LIG1        0.3543
      9 H           9.3050    3.9380   14.7770 H       1  LIG1        0.3522
     10 N          13.0100    4.7420   13.9480 N.ar    1  LIG1       -0.2579
     11 C          14.2940    4.8950   13.5420 C.ar    1  LIG1        0.1586
     12 C          14.7830    4.1390   12.4910 C.ar    1  LIG1        0.1866
     13 H          15.8070    4.2540   12.1430 H       1  LIG1        0.1024
     14 N          14.0320    3.2210   11.8250 N.ar    1  LIG1       -0.4590
     15 C          15.1750    5.9110   14.2360 C.3     1  LIG1       -0.1501
     16 H          15.5020    5.4890   15.1910 H       1  LIG1        0.0995
     17 H          14.5790    6.8040   14.4620 H       1  LIG1        0.1115
     18 N          16.3010    6.2830   13.3760 N.pl3   1  LIG1       -0.3323
     19 H          16.9040    5.4840   13.1600 H       1  LIG1        0.2514
     20 C          16.0170    7.0560   12.2360 C.ar    1  LIG1       -0.1421
     21 C          17.0880    7.4320   11.3830 C.ar    1  LIG1        0.2119
     22 C          16.8370    8.1300   10.1990 C.ar    1  LIG1       -0.2053
     23 H          17.6330    8.4240    9.5200 H       1  LIG1        0.1280
     24 C          15.5300    8.4600    9.8480 C.ar    1  LIG1       -0.1198
     25 H          15.3360    8.9980    8.9210 H       1  LIG1        0.1186
     26 C          14.4720    8.1080   10.6820 C.ar    1  LIG1       -0.2292
     27 H          13.4590    8.3850   10.3920 H       1  LIG1        0.1385
     28 C          14.7000    7.4210   11.8860 C.ar    1  LIG1        0.2393
     29 C          13.5100    7.1130   12.7550 C.3     1  LIG1       -0.3487
     30 H          12.7520    7.9000   12.6660 H       1  LIG1        0.0804
     31 H          13.7850    7.0670   13.8130 H       1  LIG1        0.1020
     32 H          13.0580    6.1630   12.4560 H       1  LIG1        0.1081
     33 O          18.3400    7.0480   11.8110 O.3     1  LIG1       -0.2378
     34 C          19.4550    7.5170   11.0550 C.3     1  LIG1       -0.0290
     35 H          20.3640    7.1780   11.5610 H       1  LIG1        0.0689
     36 H          19.4790    8.6110   11.0220 H       1  LIG1        0.0463
     37 H          19.4540    7.0870   10.0480 H       1  LIG1        0.0514
     38 N          10.0490    1.0570   11.2250 N.pl3   1  LIG1       -0.7549
     39 H          10.4690    0.5400   10.4670 H       1  LIG1        0.3677
     40 H           9.0880    0.8930   11.4850 H       1  LIG1        0.3584
@<TRIPOS>BOND
     1     1     2   ar
     2     2     3   ar
     3     3     4   ar
     4     4     5   ar
     5     5     6   ar
     6     6     1   ar
     7     6     7    1
     8     7     8    1
     9     7     9    1
    10     5    10   ar
    11    10    11   ar
    12    11    12   ar
    13    12    13    1
    14    12    14   ar
    15    14     4   ar
    16    11    15    1
    17    15    16    1
    18    15    17    1
    19    15    18    1
    20    18    19    1
    21    18    20    1
    22    20    21   ar
    23    21    22   ar
    24    22    23    1
    25    22    24   ar
    26    24    25    1
    27    24    26   ar
    28    26    27    1
    29    26    28   ar
    30    28    20   ar
    31    28    29    1
    32    29    30    1
    33    29    31    1
    34    29    32    1
    35    21    33    1
    36    33    34    1
    37    34    35    1
    38    34    36    1
    39    34    37    1
    40     2    38    1
    41    38    39    1
    42    38    40    1
