@<TRIPOS>MOLECULE
9_13j
 36 38 0 0 0
SMALL
USER_CHARGES
****
From 3DB ct
@<TRIPOS>ATOM
      1 N          10.1050    2.5910   12.7740 N.ar    1  LIG1       -0.7131
      2 C          10.8100    1.9470   11.8570 C.ar    1  LIG1        0.8149
      3 N          12.0910    2.1730   11.6120 N.ar    1  LIG1       -0.7023
      4 C          12.7140    3.0940   12.3270 C.ar    1  LIG1        0.8372
      5 C          12.1010    3.8510   13.3330 C.ar    1  LIG1       -0.8548
      6 C          10.7360    3.5280   13.5000 C.ar    1  LIG1        0.8089
      7 N           9.9110    4.1440   14.4300 N.pl3   1  LIG1       -0.7402
      8 H          10.1550    3.9670   15.4020 H       1  LIG1        0.3202
      9 H           9.7590    5.1380   14.2760 H       1  LIG1        0.3158
     10 C          12.9160    4.8230   14.0370 C.ar    1  LIG1        0.5001
     11 C          14.2700    4.9730   13.6770 C.ar    1  LIG1       -0.4107
     12 C          14.7410    4.1520   12.6650 C.ar    1  LIG1        0.3547
     13 H          15.7800    4.2020   12.3410 H       1  LIG1        0.1042
     14 N          13.9940    3.2410   12.0050 N.ar    1  LIG1       -0.5831
     15 C          15.2430    5.9320   14.3220 C.3     1  LIG1       -0.1726
     16 H          15.4580    5.6300   15.3520 H       1  LIG1        0.1407
     17 H          14.7860    6.9260   14.3930 H       1  LIG1        0.0829
     18 S          16.7860    6.0610   13.3460 S.3     1  LIG1       -0.0523
     19 C          16.2200    7.1180   12.0270 C.ar    1  LIG1        0.0311
     20 C          17.0720    7.5100   10.9890 C.ar    1  LIG1       -0.0792
     21 H          18.1060    7.1730   10.9580 H       1  LIG1        0.1026
     22 C          16.6100    8.3580    9.9780 C.ar    1  LIG1        0.0929
     23 H          17.2840    8.6550    9.1770 H       1  LIG1        0.0730
     24 C          15.2950    8.8190   10.0060 C.ar    1  LIG1       -0.4120
     25 C          14.4410    8.4420   11.0400 C.ar    1  LIG1        0.1619
     26 H          13.4150    8.8020   11.0700 H       1  LIG1        0.0528
     27 C          14.9050    7.5960   12.0510 C.ar    1  LIG1       -0.2118
     28 H          14.2260    7.3140   12.8550 H       1  LIG1        0.1337
     29 CL         14.7280    9.8660    8.7640 Cl      1  LIG1        0.0808
     30 C          12.3270    5.6640   15.1430 C.3     1  LIG1       -0.1985
     31 H          11.9460    5.0240   15.9450 H       1  LIG1        0.0623
     32 H          11.5310    6.3030   14.7490 H       1  LIG1        0.0666
     33 H          13.0470    6.3330   15.6170 H       1  LIG1        0.0504
     34 N          10.1780    0.9930   11.1200 N.pl3   1  LIG1       -0.8164
     35 H          10.6900    0.4810   10.4170 H       1  LIG1        0.3826
     36 H           9.2030    0.7950   11.2900 H       1  LIG1        0.3769
@<TRIPOS>BOND
     1     1     2   ar
     2     2     3   ar
     3     3     4   ar
     4     4     5   ar
     5     5     6   ar
     6     6     1   ar
     7     6     7    1
     8     7     8    1
     9     7     9    1
    10     5    10   ar
    11    10    11   ar
    12    11    12   ar
    13    12    13    1
    14    12    14   ar
    15    14     4   ar
    16    11    15    1
    17    15    16    1
    18    15    17    1
    19    15    18    1
    20    18    19    1
    21    19    20   ar
    22    20    21    1
    23    20    22   ar
    24    22    23    1
    25    22    24   ar
    26    24    25   ar
    27    25    26    1
    28    25    27   ar
    29    27    28    1
    30    27    19   ar
    31    24    29    1
    32    10    30    1
    33    30    31    1
    34    30    32    1
    35    30    33    1
    36     2    34    1
    37    34    35    1
    38    34    36    1
