@<TRIPOS>MOLECULE
9_13u
 46 48 0 0 0
SMALL
USER_CHARGES
****
From 3DB ct
@<TRIPOS>ATOM
      1 N          10.1250    2.5610   12.8650 N.ar    1  LIG1       -0.7083
      2 C          10.7730    1.9330   11.8960 C.ar    1  LIG1        0.7976
      3 N          12.0360    2.1670   11.5750 N.ar    1  LIG1       -0.7008
      4 C          12.6980    3.0840   12.2610 C.ar    1  LIG1        0.8253
      5 C          12.1470    3.8270   13.3090 C.ar    1  LIG1       -0.8301
      6 C          10.7960    3.4910   13.5610 C.ar    1  LIG1        0.8062
      7 N          10.0310    4.0900   14.5520 N.pl3   1  LIG1       -0.7556
      8 H          10.3490    3.9160   15.5020 H       1  LIG1        0.3199
      9 H           9.8520    5.0810   14.4140 H       1  LIG1        0.3258
     10 C          13.0020    4.7990   13.9650 C.ar    1  LIG1        0.4356
     11 C          14.3380    4.9580   13.5350 C.ar    1  LIG1       -0.3971
     12 C          14.7410    4.1510   12.4850 C.ar    1  LIG1        0.3719
     13 H          15.7480    4.1950   12.0770 H       1  LIG1        0.0888
     14 N          13.9540    3.2440   11.8630 N.ar    1  LIG1       -0.5880
     15 C          15.2810    5.9550   14.1840 C.3     1  LIG1        0.0714
     16 H          15.6130    5.5230   15.1370 H       1  LIG1        0.0265
     17 H          14.7040    6.8610   14.4120 H       1  LIG1        0.0341
     18 C          16.5290    6.3790   13.3920 C.3     1  LIG1       -0.1082
     19 H          17.1010    5.4940   13.0860 H       1  LIG1        0.0471
     20 H          17.2090    6.9690   14.0200 H       1  LIG1        0.0484
     21 C          16.1670    7.1830   12.1580 C.ar    1  LIG1       -0.0416
     22 C          14.8660    7.7050   12.0430 C.ar    1  LIG1       -0.2188
     23 H          14.1370    7.5190   12.8310 H       1  LIG1        0.1432
     24 C          14.4850    8.4630   10.9330 C.ar    1  LIG1        0.2479
     25 C          15.4170    8.7060    9.9280 C.ar    1  LIG1       -0.1922
     26 H          15.1710    9.2890    9.0440 H       1  LIG1        0.1278
     27 C          16.7180    8.1980   10.0320 C.ar    1  LIG1       -0.2154
     28 H          17.4070    8.4180    9.2200 H       1  LIG1        0.1337
     29 C          17.1040    7.4390   11.1410 C.ar    1  LIG1        0.2058
     30 O          18.3530    6.9090   11.3270 O.3     1  LIG1       -0.2489
     31 C          19.3350    7.1800   10.3290 C.3     1  LIG1        0.0092
     32 H          20.2670    6.6990   10.6420 H       1  LIG1        0.0634
     33 H          19.5260    8.2550   10.2470 H       1  LIG1        0.0388
     34 H          19.0440    6.7500    9.3650 H       1  LIG1        0.0464
     35 O          13.1910    8.9030   10.9540 O.3     1  LIG1       -0.3009
     36 C          12.7800    9.7400    9.8730 C.3     1  LIG1        0.0758
     37 H          11.7300   10.0030   10.0380 H       1  LIG1        0.0515
     38 H          12.8460    9.2090    8.9180 H       1  LIG1        0.0250
     39 H          13.3580   10.6690    9.8540 H       1  LIG1        0.0240
     40 C          12.4700    5.6370   15.1050 C.3     1  LIG1       -0.1947
     41 H          12.1700    4.9950   15.9390 H       1  LIG1        0.0739
     42 H          11.6290    6.2480   14.7650 H       1  LIG1        0.0559
     43 H          13.2010    6.3380   15.5150 H       1  LIG1        0.0370
     44 N          10.0990    0.9880   11.1850 N.pl3   1  LIG1       -0.8049
     45 H          10.5650    0.4910   10.4400 H       1  LIG1        0.3767
     46 H           9.1350    0.7880   11.4090 H       1  LIG1        0.3710
@<TRIPOS>BOND
     1     1     2   ar
     2     2     3   ar
     3     3     4   ar
     4     4     5   ar
     5     5     6   ar
     6     6     1   ar
     7     6     7    1
     8     7     8    1
     9     7     9    1
    10     5    10   ar
    11    10    11   ar
    12    11    12   ar
    13    12    13    1
    14    12    14   ar
    15    14     4   ar
    16    11    15    1
    17    15    16    1
    18    15    17    1
    19    15    18    1
    20    18    19    1
    21    18    20    1
    22    18    21    1
    23    21    22   ar
    24    22    23    1
    25    22    24   ar
    26    24    25   ar
    27    25    26    1
    28    25    27   ar
    29    27    28    1
    30    27    29   ar
    31    29    21   ar
    32    29    30    1
    33    30    31    1
    34    31    32    1
    35    31    33    1
    36    31    34    1
    37    24    35    1
    38    35    36    1
    39    36    37    1
    40    36    38    1
    41    36    39    1
    42    10    40    1
    43    40    41    1
    44    40    42    1
    45    40    43    1
    46     2    44    1
    47    44    45    1
    48    44    46    1
