@<TRIPOS>MOLECULE
9_13h
 44 46 0 0 0
SMALL
USER_CHARGES
****
From 3DB ct
@<TRIPOS>ATOM
      1 N          10.1010    2.5720   12.7700 N.ar    1  LIG1       -0.7057
      2 C          10.8160    1.9360   11.8540 C.ar    1  LIG1        0.7966
      3 N          12.0960    2.1750   11.6150 N.ar    1  LIG1       -0.6889
      4 C          12.7070    3.1030   12.3320 C.ar    1  LIG1        0.8139
      5 C          12.0820    3.8540   13.3350 C.ar    1  LIG1       -0.8209
      6 C          10.7200    3.5150   13.4980 C.ar    1  LIG1        0.8024
      7 N           9.8860    4.1220   14.4260 N.pl3   1  LIG1       -0.7461
      8 H          10.1310    3.9530   15.3980 H       1  LIG1        0.3192
      9 H           9.7210    5.1140   14.2690 H       1  LIG1        0.3206
     10 C          12.8840    4.8370   14.0400 C.ar    1  LIG1        0.4494
     11 C          14.2370    5.0020   13.6850 C.ar    1  LIG1       -0.4445
     12 C          14.7210    4.1840   12.6770 C.ar    1  LIG1        0.4542
     13 H          15.7610    4.2460   12.3560 H       1  LIG1        0.0611
     14 N          13.9870    3.2640   12.0150 N.ar    1  LIG1       -0.5997
     15 C          15.1940    5.9750   14.3310 C.3     1  LIG1       -0.0780
     16 H          15.3770    5.7020   15.3750 H       1  LIG1        0.1178
     17 H          14.7420    6.9740   14.3600 H       1  LIG1        0.0500
     18 S          16.7680    6.0690   13.4000 S.3     1  LIG1       -0.0416
     19 C          16.2520    7.1020   12.0390 C.ar    1  LIG1       -0.1457
     20 C          14.9570    7.6140   11.9700 C.ar    1  LIG1       -0.0065
     21 H          14.2280    7.3990   12.7490 H       1  LIG1        0.1217
     22 C          14.5650    8.4060   10.8860 C.ar    1  LIG1       -0.2982
     23 H          13.5460    8.7820   10.8800 H       1  LIG1        0.1525
     24 C          15.4660    8.6880    9.8560 C.ar    1  LIG1        0.2737
     25 C          16.7740    8.1640    9.9150 C.ar    1  LIG1        0.0801
     26 C          17.1550    7.3700   11.0040 C.ar    1  LIG1       -0.1280
     27 H          18.1560    6.9510   11.0700 H       1  LIG1        0.1490
     28 O          17.5960    8.4850    8.8610 O.3     1  LIG1       -0.2215
     29 C          18.9270    7.9730    8.8870 C.3     1  LIG1       -0.0273
     30 H          19.4370    8.3290    7.9870 H       1  LIG1        0.0693
     31 H          18.9270    6.8780    8.8590 H       1  LIG1        0.0520
     32 H          19.4770    8.3510    9.7540 H       1  LIG1        0.0548
     33 O          15.1730    9.4540    8.7540 O.3     1  LIG1       -0.2872
     34 C          16.2110    9.6420    7.7940 C.3     1  LIG1        0.0335
     35 H          15.8120   10.2720    6.9930 H       1  LIG1        0.0570
     36 H          16.5140    8.6890    7.3490 H       1  LIG1        0.0388
     37 H          17.0650   10.1660    8.2360 H       1  LIG1        0.0360
     38 C          12.2810    5.6730   15.1430 C.3     1  LIG1       -0.1889
     39 H          11.9090    5.0290   15.9460 H       1  LIG1        0.0678
     40 H          11.4760    6.2980   14.7470 H       1  LIG1        0.0638
     41 H          12.9900    6.3550   15.6160 H       1  LIG1        0.0460
     42 N          10.1960    0.9790   11.1130 N.pl3   1  LIG1       -0.8012
     43 H          10.7130    0.4750   10.4080 H       1  LIG1        0.3769
     44 H           9.2200    0.7760   11.2750 H       1  LIG1        0.3719
@<TRIPOS>BOND
     1     1     2   ar
     2     2     3   ar
     3     3     4   ar
     4     4     5   ar
     5     5     6   ar
     6     6     1   ar
     7     6     7    1
     8     7     8    1
     9     7     9    1
    10     5    10   ar
    11    10    11   ar
    12    11    12   ar
    13    12    13    1
    14    12    14   ar
    15    14     4   ar
    16    11    15    1
    17    15    16    1
    18    15    17    1
    19    15    18    1
    20    18    19    1
    21    19    20   ar
    22    20    21    1
    23    20    22   ar
    24    22    23    1
    25    22    24   ar
    26    24    25   ar
    27    25    26   ar
    28    26    27    1
    29    26    19   ar
    30    25    28    1
    31    28    29    1
    32    29    30    1
    33    29    31    1
    34    29    32    1
    35    24    33    1
    36    33    34    1
    37    34    35    1
    38    34    36    1
    39    34    37    1
    40    10    38    1
    41    38    39    1
    42    38    40    1
    43    38    41    1
    44     2    42    1
    45    42    43    1
    46    42    44    1
