@<TRIPOS>MOLECULE
9_13g
 40 42 0 0 0
SMALL
USER_CHARGES
****
From 3DB ct
@<TRIPOS>ATOM
      1 N          10.1020    2.5800   12.7680 N.ar    1  LIG1       -0.7113
      2 C          10.8130    1.9460   11.8490 C.ar    1  LIG1        0.8100
      3 N          12.0950    2.1780   11.6120 N.ar    1  LIG1       -0.7012
      4 C          12.7100    3.0990   12.3330 C.ar    1  LIG1        0.8208
      5 C          12.0890    3.8500   13.3380 C.ar    1  LIG1       -0.8270
      6 C          10.7260    3.5150   13.5020 C.ar    1  LIG1        0.8058
      7 N           9.8960    4.1200   14.4350 N.pl3   1  LIG1       -0.7471
      8 H          10.1530    3.9570   15.4060 H       1  LIG1        0.3212
      9 H           9.7210    5.1090   14.2760 H       1  LIG1        0.3203
     10 C          12.8950    4.8270   14.0470 C.ar    1  LIG1        0.4475
     11 C          14.2550    4.9700   13.7080 C.ar    1  LIG1       -0.3807
     12 C          14.7320    4.1640   12.6870 C.ar    1  LIG1        0.3955
     13 H          15.7700    4.2270   12.3610 H       1  LIG1        0.0721
     14 N          13.9920    3.2540   12.0180 N.ar    1  LIG1       -0.5850
     15 C          15.2160    5.9420   14.3530 C.3     1  LIG1       -0.1266
     16 H          15.4510    5.6070   15.3700 H       1  LIG1        0.1275
     17 H          14.7500    6.9260   14.4650 H       1  LIG1        0.0568
     18 S          16.7750    6.0630   13.4010 S.3     1  LIG1       -0.0432
     19 C          16.2310    7.1000   12.0570 C.ar    1  LIG1       -0.1334
     20 C          17.1380    7.4400   11.0490 C.ar    1  LIG1        0.0085
     21 H          18.1600    7.0660   11.0740 H       1  LIG1        0.1172
     22 C          16.7480    8.2640    9.9850 C.ar    1  LIG1       -0.2872
     23 H          17.4900    8.4940    9.2240 H       1  LIG1        0.1290
     24 C          15.4480    8.7630    9.9240 C.ar    1  LIG1        0.3695
     25 C          14.5450    8.4330   10.9380 C.ar    1  LIG1       -0.2971
     26 H          13.5280    8.8210   10.9090 H       1  LIG1        0.1427
     27 C          14.9330    7.6110   12.0010 C.ar    1  LIG1       -0.0152
     28 H          14.2090    7.3880   12.7810 H       1  LIG1        0.1207
     29 O          14.9420    9.5740    8.9460 O.3     1  LIG1       -0.3174
     30 C          15.8080    9.8760    7.8530 C.3     1  LIG1        0.0644
     31 H          15.2610   10.5290    7.1660 H       1  LIG1        0.0597
     32 H          16.0810    8.9690    7.3040 H       1  LIG1        0.0296
     33 H          16.6960   10.4180    8.1930 H       1  LIG1        0.0285
     34 C          12.2890    5.6820   15.1340 C.3     1  LIG1       -0.2197
     35 H          12.9880    6.3970   15.5700 H       1  LIG1        0.0530
     36 H          11.9420    5.0530   15.9590 H       1  LIG1        0.0728
     37 H          11.4660    6.2790   14.7310 H       1  LIG1        0.0751
     38 N          10.1880    0.9950   11.1030 N.pl3   1  LIG1       -0.8109
     39 H          10.7020    0.4920   10.3950 H       1  LIG1        0.3803
     40 H           9.2110    0.7960   11.2650 H       1  LIG1        0.3746
@<TRIPOS>BOND
     1     1     2   ar
     2     2     3   ar
     3     3     4   ar
     4     4     5   ar
     5     5     6   ar
     6     6     1   ar
     7     6     7    1
     8     7     8    1
     9     7     9    1
    10     5    10   ar
    11    10    11   ar
    12    11    12   ar
    13    12    13    1
    14    12    14   ar
    15    14     4   ar
    16    11    15    1
    17    15    16    1
    18    15    17    1
    19    15    18    1
    20    18    19    1
    21    19    20   ar
    22    20    21    1
    23    20    22   ar
    24    22    23    1
    25    22    24   ar
    26    24    25   ar
    27    25    26    1
    28    25    27   ar
    29    27    28    1
    30    27    19   ar
    31    24    29    1
    32    29    30    1
    33    30    31    1
    34    30    32    1
    35    30    33    1
    36    10    34    1
    37    34    35    1
    38    34    36    1
    39    34    37    1
    40     2    38    1
    41    38    39    1
    42    38    40    1
