@<TRIPOS>MOLECULE
9_13l
 44 46 0 0 0
SMALL
USER_CHARGES
****
From 3DB ct
@<TRIPOS>ATOM
      1 N          10.1370    2.6290   12.8220 N.ar    1  LIG1       -0.7145
      2 C          10.8000    1.9670   11.8860 C.ar    1  LIG1        0.8074
      3 N          12.0770    2.1650   11.6010 N.ar    1  LIG1       -0.6998
      4 C          12.7390    3.0800   12.2880 C.ar    1  LIG1        0.8284
      5 C          12.1710    3.8600   13.3030 C.ar    1  LIG1       -0.8568
      6 C          10.8080    3.5570   13.5220 C.ar    1  LIG1        0.8209
      7 N          10.0280    4.1880   14.4810 N.pl3   1  LIG1       -0.7546
      8 H          10.3290    4.0420   15.4410 H       1  LIG1        0.3200
      9 H           9.8560    5.1760   14.3090 H       1  LIG1        0.3248
     10 C          13.0220    4.8290   13.9660 C.ar    1  LIG1        0.4692
     11 C          14.3760    4.9250   13.5890 C.ar    1  LIG1       -0.3806
     12 C          14.7980    4.0980   12.5620 C.ar    1  LIG1        0.3978
     13 H          15.8260    4.1330   12.2010 H       1  LIG1        0.0773
     14 N          14.0130    3.2000   11.9280 N.ar    1  LIG1       -0.5914
     15 C          15.3830    5.8740   14.1970 C.3     1  LIG1        0.0033
     16 H          15.8520    5.3890   15.0600 H       1  LIG1        0.0775
     17 H          14.8760    6.7590   14.6000 H       1  LIG1        0.0964
     18 N          16.3770    6.2430   13.1950 N.pl3   1  LIG1       -0.4689
     19 H          16.9770    5.4730   12.9000 H       1  LIG1        0.3058
     20 C          16.0090    7.1300   12.1840 C.ar    1  LIG1        0.2442
     21 C          14.6930    7.6280   12.1890 C.ar    1  LIG1       -0.3810
     22 H          13.9920    7.2750   12.9450 H       1  LIG1        0.1450
     23 C          14.2570    8.5810   11.2630 C.ar    1  LIG1        0.3772
     24 C          15.1520    9.0590   10.3130 C.ar    1  LIG1       -0.3122
     25 H          14.8690    9.8040    9.5740 H       1  LIG1        0.1288
     26 C          16.4620    8.5760   10.2890 C.ar    1  LIG1       -0.0858
     27 H          17.1470    8.9600    9.5320 H       1  LIG1        0.1332
     28 C          16.9000    7.6040   11.2070 C.ar    1  LIG1       -0.0759
     29 C          18.3180    7.1130   11.0850 C.3     1  LIG1       -0.1615
     30 H          18.6470    7.1320   10.0400 H       1  LIG1        0.0568
     31 H          18.4120    6.0750   11.4210 H       1  LIG1        0.0488
     32 H          18.9890    7.7480   11.6700 H       1  LIG1        0.0378
     33 O          12.9510    8.9630   11.4010 O.3     1  LIG1       -0.3062
     34 C          12.4650    9.9350   10.4760 C.3     1  LIG1        0.0583
     35 H          11.4140   10.1240   10.7130 H       1  LIG1        0.0552
     36 H          12.5130    9.5580    9.4490 H       1  LIG1        0.0302
     37 H          13.0070   10.8810   10.5790 H       1  LIG1        0.0283
     38 C          12.4750    5.7250   15.0510 C.3     1  LIG1       -0.2110
     39 H          12.1720    5.1300   15.9180 H       1  LIG1        0.0727
     40 H          11.6320    6.3090   14.6710 H       1  LIG1        0.0665
     41 H          13.1950    6.4600   15.4150 H       1  LIG1        0.0457
     42 N          10.1260    1.0250   11.1730 N.pl3   1  LIG1       -0.8069
     43 H          10.6020    0.5030   10.4520 H       1  LIG1        0.3777
     44 H           9.1500    0.8530   11.3700 H       1  LIG1        0.3724
@<TRIPOS>BOND
     1     1     2   ar
     2     2     3   ar
     3     3     4   ar
     4     4     5   ar
     5     5     6   ar
     6     6     1   ar
     7     6     7    1
     8     7     8    1
     9     7     9    1
    10     5    10   ar
    11    10    11   ar
    12    11    12   ar
    13    12    13    1
    14    12    14   ar
    15    14     4   ar
    16    11    15    1
    17    15    16    1
    18    15    17    1
    19    15    18    1
    20    18    19    1
    21    18    20    1
    22    20    21   ar
    23    21    22    1
    24    21    23   ar
    25    23    24   ar
    26    24    25    1
    27    24    26   ar
    28    26    27    1
    29    26    28   ar
    30    28    20   ar
    31    28    29    1
    32    29    30    1
    33    29    31    1
    34    29    32    1
    35    23    33    1
    36    33    34    1
    37    34    35    1
    38    34    36    1
    39    34    37    1
    40    10    38    1
    41    38    39    1
    42    38    40    1
    43    38    41    1
    44     2    42    1
    45    42    43    1
    46    42    44    1
