@<TRIPOS>MOLECULE
9_13b
 36 38 0 0 0
SMALL
USER_CHARGES
****
From 3DB ct
@<TRIPOS>ATOM
      1 N          10.1030    2.5920   12.7720 N.ar    1  LIG1       -0.7110
      2 C          10.8080    1.9490   11.8540 C.ar    1  LIG1        0.8128
      3 N          12.0900    2.1710   11.6130 N.ar    1  LIG1       -0.7061
      4 C          12.7140    3.0900   12.3300 C.ar    1  LIG1        0.8483
      5 C          12.1010    3.8470   13.3360 C.ar    1  LIG1       -0.8740
      6 C          10.7350    3.5260   13.5010 C.ar    1  LIG1        0.8058
      7 N           9.9100    4.1430   14.4310 N.pl3   1  LIG1       -0.7355
      8 H          10.1520    3.9640   15.4020 H       1  LIG1        0.3172
      9 H           9.7630    5.1380   14.2790 H       1  LIG1        0.3156
     10 C          12.9170    4.8180   14.0420 C.ar    1  LIG1        0.5266
     11 C          14.2700    4.9700   13.6800 C.ar    1  LIG1       -0.4133
     12 C          14.7420    4.1480   12.6700 C.ar    1  LIG1        0.3605
     13 H          15.7810    4.1980   12.3450 H       1  LIG1        0.1049
     14 N          13.9950    3.2360   12.0100 N.ar    1  LIG1       -0.5894
     15 C          15.2400    5.9340   14.3220 C.3     1  LIG1       -0.1933
     16 H          15.4540    5.6360   15.3540 H       1  LIG1        0.1436
     17 H          14.7810    6.9280   14.3890 H       1  LIG1        0.0875
     18 S          16.7840    6.0650   13.3470 S.3     1  LIG1       -0.0450
     19 C          16.2240    7.1240   12.0260 C.ar    1  LIG1       -0.0623
     20 C          17.0750    7.5180   10.9880 C.ar    1  LIG1        0.0328
     21 H          18.1100    7.1850   10.9570 H       1  LIG1        0.0811
     22 C          16.6090    8.3590    9.9750 C.ar    1  LIG1       -0.1841
     23 H          17.2760    8.6600    9.1680 H       1  LIG1        0.1240
     24 C          15.2930    8.8190    9.9970 C.ar    1  LIG1       -0.0625
     25 H          14.9320    9.4760    9.2080 H       1  LIG1        0.1019
     26 C          14.4440    8.4420   11.0350 C.ar    1  LIG1       -0.1260
     27 H          13.4170    8.8040   11.0580 H       1  LIG1        0.1071
     28 C          14.9090    7.6010   12.0490 C.ar    1  LIG1       -0.0970
     29 H          14.2300    7.3190   12.8530 H       1  LIG1        0.1135
     30 C          12.3280    5.6580   15.1490 C.3     1  LIG1       -0.2142
     31 H          11.9410    5.0160   15.9470 H       1  LIG1        0.0629
     32 H          11.5370    6.3030   14.7560 H       1  LIG1        0.0704
     33 H          13.0500    6.3200   15.6300 H       1  LIG1        0.0545
     34 N          10.1740    1.0010   11.1120 N.pl3   1  LIG1       -0.8146
     35 H          10.6840    0.4920   10.4040 H       1  LIG1        0.3820
     36 H           9.1970    0.8100   11.2740 H       1  LIG1        0.3753
@<TRIPOS>BOND
     1     1     2   ar
     2     2     3   ar
     3     3     4   ar
     4     4     5   ar
     5     5     6   ar
     6     6     1   ar
     7     6     7    1
     8     7     8    1
     9     7     9    1
    10     5    10   ar
    11    10    11   ar
    12    11    12   ar
    13    12    13    1
    14    12    14   ar
    15    14     4   ar
    16    11    15    1
    17    15    16    1
    18    15    17    1
    19    15    18    1
    20    18    19    1
    21    19    20   ar
    22    20    21    1
    23    20    22   ar
    24    22    23    1
    25    22    24   ar
    26    24    25    1
    27    24    26   ar
    28    26    27    1
    29    26    28   ar
    30    28    29    1
    31    28    19   ar
    32    10    30    1
    33    30    31    1
    34    30    32    1
    35    30    33    1
    36     2    34    1
    37    34    35    1
    38    34    36    1
