@<TRIPOS>MOLECULE
9_13r
 44 46 0 0 0
SMALL
USER_CHARGES
****
From 3DB ct
@<TRIPOS>ATOM
      1 N          10.1260    2.6160   12.8080 N.ar    1  LIG1       -0.7128
      2 C          10.8000    1.9650   11.8730 C.ar    1  LIG1        0.8068
      3 N          12.0790    2.1690   11.6010 N.ar    1  LIG1       -0.7021
      4 C          12.7310    3.0830   12.3000 C.ar    1  LIG1        0.8466
      5 C          12.1470    3.8560   13.3120 C.ar    1  LIG1       -0.8735
      6 C          10.7850    3.5430   13.5190 C.ar    1  LIG1        0.8230
      7 N           9.9960    4.1610   14.4790 N.pl3   1  LIG1       -0.7523
      8 H          10.2960    4.0110   15.4390 H       1  LIG1        0.3207
      9 H           9.8160    5.1480   14.3130 H       1  LIG1        0.3239
     10 C          12.9870    4.8270   13.9880 C.ar    1  LIG1        0.5100
     11 C          14.3460    4.9280   13.6290 C.ar    1  LIG1       -0.4643
     12 C          14.7840    4.1040   12.6060 C.ar    1  LIG1        0.4126
     13 H          15.8160    4.1410   12.2590 H       1  LIG1        0.0835
     14 N          14.0080    3.2090   11.9560 N.ar    1  LIG1       -0.6028
     15 C          15.3410    5.8780   14.2610 C.3     1  LIG1        0.1144
     16 H          15.8380    5.3730   15.0990 H       1  LIG1        0.0753
     17 H          14.8000    6.7340   14.6800 H       1  LIG1        0.0595
     18 N          16.3260    6.2870   13.2760 N.pl3   1  LIG1       -0.5254
     19 H          17.2790    5.9650   13.4350 H       1  LIG1        0.3105
     20 C          16.0950    7.0960   12.1740 C.ar    1  LIG1        0.0957
     21 C          14.7900    7.6160   12.0440 C.ar    1  LIG1       -0.0031
     22 H          14.0410    7.3680   12.7980 H       1  LIG1        0.1049
     23 C          14.4090    8.4450   10.9770 C.ar    1  LIG1       -0.4049
     24 C          15.3690    8.7830   10.0220 C.ar    1  LIG1       -0.0346
     25 H          15.1120    9.4360    9.1880 H       1  LIG1        0.1227
     26 C          16.6700    8.2840   10.1220 C.ar    1  LIG1       -0.1921
     27 H          17.3720    8.5780    9.3450 H       1  LIG1        0.1280
     28 C          17.0440    7.4430   11.1820 C.ar    1  LIG1        0.2090
     29 O          18.3110    6.9320   11.3150 O.3     1  LIG1       -0.2638
     30 C          19.2970    7.3260   10.3640 C.3     1  LIG1       -0.0058
     31 H          20.2340    6.8300   10.6340 H       1  LIG1        0.0728
     32 H          19.4710    8.4060   10.4000 H       1  LIG1        0.0454
     33 H          19.0260    6.9960    9.3550 H       1  LIG1        0.0514
     34 C          13.0070    8.9880   10.8920 C.3     1  LIG1        1.1194
     35 F          12.8560   10.1680   11.5680 F       1  LIG1       -0.3399
     36 F          12.0610    8.1470   11.4110 F       1  LIG1       -0.3426
     37 F          12.5940    9.2450    9.6140 F       1  LIG1       -0.3360
     38 C          12.4240    5.7220   15.0660 C.3     1  LIG1       -0.2208
     39 H          12.1170    5.1260   15.9300 H       1  LIG1        0.0733
     40 H          11.5800    6.2990   14.6760 H       1  LIG1        0.0750
     41 H          13.1360    6.4620   15.4340 H       1  LIG1        0.0458
     42 N          10.1350    1.0270   11.1460 N.pl3   1  LIG1       -0.8049
     43 H          10.6160    0.5190   10.4180 H       1  LIG1        0.3784
     44 H           9.1560    0.8580   11.3280 H       1  LIG1        0.3730
@<TRIPOS>BOND
     1     1     2   ar
     2     2     3   ar
     3     3     4   ar
     4     4     5   ar
     5     5     6   ar
     6     6     1   ar
     7     6     7    1
     8     7     8    1
     9     7     9    1
    10     5    10   ar
    11    10    11   ar
    12    11    12   ar
    13    12    13    1
    14    12    14   ar
    15    14     4   ar
    16    11    15    1
    17    15    16    1
    18    15    17    1
    19    15    18    1
    20    18    19    1
    21    18    20    1
    22    20    21   ar
    23    21    22    1
    24    21    23   ar
    25    23    24   ar
    26    24    25    1
    27    24    26   ar
    28    26    27    1
    29    26    28   ar
    30    28    20   ar
    31    28    29    1
    32    29    30    1
    33    30    31    1
    34    30    32    1
    35    30    33    1
    36    23    34    1
    37    34    35    1
    38    34    36    1
    39    34    37    1
    40    10    38    1
    41    38    39    1
    42    38    40    1
    43    38    41    1
    44     2    42    1
    45    42    43    1
    46    42    44    1
