@<TRIPOS>MOLECULE
9_14k
 47 49 0 0 0
SMALL
USER_CHARGES
****
From 3DB ct
@<TRIPOS>ATOM
      1 N          10.1200    2.6200   12.7940 N.ar    1  LIG1       -0.7118
      2 C          10.8050    1.9590   11.8730 C.ar    1  LIG1        0.8105
      3 N          12.0860    2.1620   11.6120 N.ar    1  LIG1       -0.6990
      4 C          12.7310    3.0800   12.3120 C.ar    1  LIG1        0.8150
      5 C          12.1430    3.8490   13.3230 C.ar    1  LIG1       -0.8269
      6 C          10.7730    3.5530   13.5040 C.ar    1  LIG1        0.8085
      7 N           9.9680    4.1920   14.4360 N.pl3   1  LIG1       -0.7478
      8 H          10.1950    3.9920   15.4070 H       1  LIG1        0.3211
      9 H           9.8620    5.1940   14.2950 H       1  LIG1        0.3232
     10 C          12.9820    4.8110   14.0130 C.ar    1  LIG1        0.4550
     11 C          14.3250    4.9630   13.6130 C.ar    1  LIG1       -0.4370
     12 C          14.7710    4.1330   12.5980 C.ar    1  LIG1        0.4185
     13 H          15.7980    4.1860   12.2390 H       1  LIG1        0.0577
     14 N          14.0080    3.2130   11.9680 N.ar    1  LIG1       -0.5853
     15 C          15.3040    5.9590   14.2060 C.3     1  LIG1        0.0888
     16 H          15.7240    5.5660   15.1410 H       1  LIG1        0.0827
     17 H          14.7370    6.8580   14.4800 H       1  LIG1        0.0293
     18 N          16.3910    6.2620   13.2630 N.pl3   1  LIG1       -0.2365
     19 C          16.1120    7.0950   12.1680 C.ar    1  LIG1        0.0194
     20 C          14.7950    7.5820   12.0490 C.ar    1  LIG1       -0.0560
     21 H          14.0600    7.3030   12.8050 H       1  LIG1        0.1198
     22 C          14.4080    8.4310   11.0020 C.ar    1  LIG1       -0.3710
     23 C          15.3590    8.7780   10.0390 C.ar    1  LIG1       -0.0050
     24 H          15.0870    9.4270    9.2060 H       1  LIG1        0.1181
     25 C          16.6690    8.2970   10.1250 C.ar    1  LIG1       -0.2364
     26 H          17.3620    8.5950    9.3420 H       1  LIG1        0.1368
     27 C          17.0560    7.4550   11.1770 C.ar    1  LIG1        0.2838
     28 O          18.3130    6.9160   11.2980 O.3     1  LIG1       -0.2669
     29 C          19.3030    7.3270   10.3580 C.3     1  LIG1       -0.0190
     30 H          20.2330    6.8060   10.6060 H       1  LIG1        0.0715
     31 H          19.4940    8.4020   10.4330 H       1  LIG1        0.0502
     32 H          19.0230    7.0400    9.3390 H       1  LIG1        0.0530
     33 C          12.9870    8.9240   10.9080 C.3     1  LIG1        1.0987
     34 F          12.8510   10.0840   10.1950 F       1  LIG1       -0.3366
     35 F          12.4200    9.1840   12.1260 F       1  LIG1       -0.3363
     36 F          12.1550    8.0250   10.3020 F       1  LIG1       -0.3362
     37 C          17.6850    5.7430   13.5190 C.3     1  LIG1       -0.0605
     38 H          17.8550    4.6660   13.4060 H       1  LIG1        0.0663
     39 H          18.0990    6.0260   14.4910 H       1  LIG1        0.0403
     40 H          18.2500    6.2690   12.7420 H       1  LIG1        0.0713
     41 C          12.4300    5.6520   15.1380 C.3     1  LIG1       -0.2154
     42 H          11.9770    5.0160   15.9030 H       1  LIG1        0.0714
     43 H          11.7000    6.3690   14.7520 H       1  LIG1        0.0750
     44 H          13.1940    6.2240   15.6660 H       1  LIG1        0.0537
     45 N          10.1480    1.0120   11.1490 N.pl3   1  LIG1       -0.8097
     46 H          10.6380    0.4940   10.4350 H       1  LIG1        0.3790
     47 H           9.1680    0.8410   11.3240 H       1  LIG1        0.3746
@<TRIPOS>BOND
     1     1     2   ar
     2     2     3   ar
     3     3     4   ar
     4     4     5   ar
     5     5     6   ar
     6     6     1   ar
     7     6     7    1
     8     7     8    1
     9     7     9    1
    10     5    10   ar
    11    10    11   ar
    12    11    12   ar
    13    12    13    1
    14    12    14   ar
    15    14     4   ar
    16    11    15    1
    17    15    16    1
    18    15    17    1
    19    15    18    1
    20    18    19    1
    21    19    20   ar
    22    20    21    1
    23    20    22   ar
    24    22    23   ar
    25    23    24    1
    26    23    25   ar
    27    25    26    1
    28    25    27   ar
    29    27    19   ar
    30    27    28    1
    31    28    29    1
    32    29    30    1
    33    29    31    1
    34    29    32    1
    35    22    33    1
    36    33    34    1
    37    33    35    1
    38    33    36    1
    39    18    37    1
    40    37    38    1
    41    37    39    1
    42    37    40    1
    43    10    41    1
    44    41    42    1
    45    41    43    1
    46    41    44    1
    47     2    45    1
    48    45    46    1
    49    45    47    1
