@<TRIPOS>MOLECULE
9_15c
 46 48 0 0 0
SMALL
USER_CHARGES
****
From 3DB ct
@<TRIPOS>ATOM
      1 N          10.1720    2.6640   12.8960 N.ar    1  LIG1       -0.6957
      2 C          10.7670    2.0190   11.8950 C.ar    1  LIG1        0.8089
      3 N          12.0410    2.1720   11.5470 N.ar    1  LIG1       -0.7120
      4 C          12.7740    3.0340   12.2350 C.ar    1  LIG1        0.8353
      5 C          12.2580    3.7650   13.3030 C.ar    1  LIG1       -0.7651
      6 C          10.9190    3.5170   13.6060 C.ar    1  LIG1        0.7639
      7 N          10.2530    4.1850   14.6180 N.pl3   1  LIG1       -0.7517
      8 H          10.7480    4.3750   15.4830 H       1  LIG1        0.3318
      9 H           9.2800    3.9210   14.7400 H       1  LIG1        0.3283
     10 C          13.1060    4.6780   13.9770 C.ar    1  LIG1        0.2478
     11 H          12.7230    5.2750   14.8030 H       1  LIG1        0.0829
     12 C          14.4340    4.8220   13.5830 C.ar    1  LIG1       -0.2558
     13 C          14.8450    4.0520   12.5100 C.ar    1  LIG1        0.3786
     14 H          15.8630    4.1210   12.1310 H       1  LIG1        0.0720
     15 N          14.0460    3.1750   11.8490 N.ar    1  LIG1       -0.5887
     16 C          15.3660    5.7890   14.2590 C.3     1  LIG1       -0.1598
     17 H          15.9050    5.2700   15.0620 H       1  LIG1        0.1021
     18 H          14.7820    6.5920   14.7250 H       1  LIG1        0.1263
     19 N          16.2990    6.3370   13.2890 N.pl3   1  LIG1       -0.4089
     20 H          17.2790    6.0830   13.3990 H       1  LIG1        0.2967
     21 C          15.9410    7.1250   12.2130 C.ar    1  LIG1        0.3079
     22 C          16.9040    7.3990   11.2320 C.ar    1  LIG1       -0.4543
     23 H          17.9080    6.9900   11.3260 H       1  LIG1        0.1422
     24 C          16.5960    8.1910   10.1260 C.ar    1  LIG1        0.3321
     25 C          15.3320    8.7700   10.0050 C.ar    1  LIG1       -0.1954
     26 C          14.3420    8.4980   10.9580 C.ar    1  LIG1        0.3918
     27 C          14.6600    7.6820   12.0550 C.ar    1  LIG1       -0.3736
     28 H          13.9050    7.4700   12.8050 H       1  LIG1        0.1381
     29 O          13.1160    9.0720   10.7310 O.3     1  LIG1       -0.3046
     30 C          12.9740    9.8690    9.5580 C.3     1  LIG1        0.0663
     31 H          11.9470   10.2460    9.5360 H       1  LIG1        0.0402
     32 H          13.1280    9.2710    8.6540 H       1  LIG1        0.0441
     33 H          13.6460   10.7330    9.5850 H       1  LIG1        0.0461
     34 O          15.0410    9.5440    8.9070 O.3     1  LIG1       -0.2325
     35 C          16.1810    9.6080    8.0430 C.3     1  LIG1        0.0062
     36 H          15.9130   10.2320    7.1850 H       1  LIG1        0.0396
     37 H          16.4510    8.6140    7.6690 H       1  LIG1        0.0533
     38 H          17.0360   10.0720    8.5460 H       1  LIG1        0.0440
     39 O          17.5720    8.4500    9.1980 O.3     1  LIG1       -0.2227
     40 C          18.7590    7.7200    9.5260 C.3     1  LIG1       -0.0444
     41 H          19.4970    7.9150    8.7420 H       1  LIG1        0.0766
     42 H          18.5670    6.6420    9.5520 H       1  LIG1        0.0575
     43 H          19.1780    8.0580   10.4800 H       1  LIG1        0.0575
     44 N          10.0150    1.1390   11.1780 N.pl3   1  LIG1       -0.8042
     45 H          10.4300    0.6330   10.4090 H       1  LIG1        0.3808
     46 H           9.0440    1.0030   11.4160 H       1  LIG1        0.3704
@<TRIPOS>BOND
     1     1     2   ar
     2     2     3   ar
     3     3     4   ar
     4     4     5   ar
     5     5     6   ar
     6     6     1   ar
     7     6     7    1
     8     7     8    1
     9     7     9    1
    10     5    10   ar
    11    10    11    1
    12    10    12   ar
    13    12    13   ar
    14    13    14    1
    15    13    15   ar
    16    15     4   ar
    17    12    16    1
    18    16    17    1
    19    16    18    1
    20    16    19    1
    21    19    20    1
    22    19    21    1
    23    21    22   ar
    24    22    23    1
    25    22    24   ar
    26    24    25   ar
    27    25    26   ar
    28    26    27   ar
    29    27    28    1
    30    27    21   ar
    31    26    29    1
    32    29    30    1
    33    30    31    1
    34    30    32    1
    35    30    33    1
    36    25    34    1
    37    34    35    1
    38    35    36    1
    39    35    37    1
    40    35    38    1
    41    24    39    1
    42    39    40    1
    43    40    41    1
    44    40    42    1
    45    40    43    1
    46     2    44    1
    47    44    45    1
    48    44    46    1
