@<TRIPOS>MOLECULE
9_15b
 34 36 0 0 0
SMALL
USER_CHARGES
****
From 3DB ct
@<TRIPOS>ATOM
      1 N          10.1520    2.6380   12.8810 N.ar    1  LIG1       -0.6902
      2 C          10.7640    1.9970   11.8870 C.ar    1  LIG1        0.8037
      3 N          12.0390    2.1670   11.5490 N.ar    1  LIG1       -0.7089
      4 C          12.7550    3.0400   12.2410 C.ar    1  LIG1        0.8387
      5 C          12.2210    3.7660   13.3030 C.ar    1  LIG1       -0.7625
      6 C          10.8830    3.5010   13.5960 C.ar    1  LIG1        0.7551
      7 N          10.2010    4.1630   14.6020 N.pl3   1  LIG1       -0.7480
      8 H          10.6880    4.3600   15.4700 H       1  LIG1        0.3300
      9 H           9.2290    3.8880   14.7170 H       1  LIG1        0.3266
     10 C          13.0500    4.6900   13.9830 C.ar    1  LIG1        0.2595
     11 H          12.6540    5.2830   14.8050 H       1  LIG1        0.0766
     12 C          14.3790    4.8530   13.6000 C.ar    1  LIG1       -0.3107
     13 C          14.8100    4.0870   12.5310 C.ar    1  LIG1        0.3985
     14 H          15.8310    4.1680   12.1600 H       1  LIG1        0.0745
     15 N          14.0280    3.1980   11.8640 N.ar    1  LIG1       -0.5928
     16 C          15.2940    5.8310   14.2850 C.3     1  LIG1       -0.0605
     17 H          15.7950    5.3350   15.1250 H       1  LIG1        0.0961
     18 H          14.6950    6.6500   14.7020 H       1  LIG1        0.0985
     19 N          16.2710    6.3430   13.3410 N.pl3   1  LIG1       -0.5570
     20 H          17.2400    6.0610   13.4760 H       1  LIG1        0.3313
     21 C          15.9610    7.1290   12.2490 C.ar    1  LIG1        0.4114
     22 C          16.9560    7.3860   11.2950 C.ar    1  LIG1       -0.4109
     23 H          17.9530    6.9620   11.4180 H       1  LIG1        0.1366
     24 C          16.7060    8.1850   10.1740 C.ar    1  LIG1        0.2680
     25 H          17.5010    8.3630    9.4540 H       1  LIG1        0.0452
     26 C          15.4450    8.7410    9.9930 C.ar    1  LIG1       -0.5238
     27 C          14.4400    8.5040   10.9250 C.ar    1  LIG1        0.2135
     28 H          13.4500    8.9350   10.7940 H       1  LIG1        0.0530
     29 C          14.7010    7.7040   12.0450 C.ar    1  LIG1       -0.2985
     30 H          13.8900    7.5430   12.7510 H       1  LIG1        0.1215
     31 CL         15.1270    9.7250    8.6170 Cl      1  LIG1        0.0738
     32 N          10.0320    1.1050   11.1660 N.pl3   1  LIG1       -0.8007
     33 H          10.4610    0.5990   10.4060 H       1  LIG1        0.3814
     34 H           9.0610    0.9530   11.3990 H       1  LIG1        0.3709
@<TRIPOS>BOND
     1     1     2   ar
     2     2     3   ar
     3     3     4   ar
     4     4     5   ar
     5     5     6   ar
     6     6     1   ar
     7     6     7    1
     8     7     8    1
     9     7     9    1
    10     5    10   ar
    11    10    11    1
    12    10    12   ar
    13    12    13   ar
    14    13    14    1
    15    13    15   ar
    16    15     4   ar
    17    12    16    1
    18    16    17    1
    19    16    18    1
    20    16    19    1
    21    19    20    1
    22    19    21    1
    23    21    22   ar
    24    22    23    1
    25    22    24   ar
    26    24    25    1
    27    24    26   ar
    28    26    27   ar
    29    27    28    1
    30    27    29   ar
    31    29    30    1
    32    29    21   ar
    33    26    31    1
    34     2    32    1
    35    32    33    1
    36    32    34    1
