@<TRIPOS>MOLECULE
9_16d
 42 44 0 0 0
SMALL
USER_CHARGES
****
From 3DB ct
@<TRIPOS>ATOM
      1 N          10.1490    2.6160   12.8800 N.ar    1  LIG1       -0.6934
      2 C          10.7720    1.9770   11.8920 C.ar    1  LIG1        0.8021
      3 N          12.0450    2.1620   11.5550 N.ar    1  LIG1       -0.7086
      4 C          12.7470    3.0520   12.2400 C.ar    1  LIG1        0.8348
      5 C          12.1990    3.7810   13.2930 C.ar    1  LIG1       -0.7614
      6 C          10.8650    3.4980   13.5880 C.ar    1  LIG1        0.7607
      7 N          10.1710    4.1570   14.5870 N.pl3   1  LIG1       -0.7519
      8 H          10.6550    4.3680   15.4550 H       1  LIG1        0.3313
      9 H           9.2040    3.8670   14.7040 H       1  LIG1        0.3274
     10 C          13.0120    4.7280   13.9620 C.ar    1  LIG1        0.2416
     11 H          12.6030    5.3250   14.7750 H       1  LIG1        0.0819
     12 C          14.3400    4.9050   13.5810 C.ar    1  LIG1       -0.2640
     13 C          14.7850    4.1330   12.5230 C.ar    1  LIG1        0.3886
     14 H          15.8050    4.2240   12.1540 H       1  LIG1        0.0767
     15 N          14.0180    3.2250   11.8650 N.ar    1  LIG1       -0.5949
     16 C          15.2370    5.9100   14.2550 C.3     1  LIG1       -0.1330
     17 H          15.6840    5.4440   15.1410 H       1  LIG1        0.0998
     18 H          14.6280    6.7580   14.5880 H       1  LIG1        0.1155
     19 N          16.2650    6.3480   13.3290 N.pl3   1  LIG1       -0.3638
     20 H          17.2070    6.0020   13.5050 H       1  LIG1        0.2789
     21 C          16.0710    7.1380   12.2040 C.ar    1  LIG1        0.1118
     22 C          14.7790    7.6750   12.0280 C.ar    1  LIG1       -0.2475
     23 H          14.0060    7.4600   12.7660 H       1  LIG1        0.1277
     24 C          14.4390    8.4760   10.9330 C.ar    1  LIG1        0.2944
     25 C          15.4080    8.7600    9.9820 C.ar    1  LIG1       -0.2898
     26 H          15.2020    9.3800    9.1140 H       1  LIG1        0.1324
     27 C          16.6990    8.2410   10.1240 C.ar    1  LIG1       -0.1123
     28 H          17.4200    8.4940    9.3500 H       1  LIG1        0.1217
     29 C          17.0420    7.4340   11.2200 C.ar    1  LIG1        0.0763
     30 O          18.2980    6.9090   11.3940 O.3     1  LIG1       -0.2568
     31 C          19.3100    7.2580   10.4530 C.3     1  LIG1        0.0096
     32 H          20.2290    6.7410   10.7480 H       1  LIG1        0.0609
     33 H          19.5120    8.3330   10.4740 H       1  LIG1        0.0382
     34 H          19.0460    6.9180    9.4460 H       1  LIG1        0.0437
     35 O          13.1430    8.9120   10.9170 O.3     1  LIG1       -0.2915
     36 C          12.7640    9.7610    9.8350 C.3     1  LIG1        0.0229
     37 H          11.7050   10.0050    9.9580 H       1  LIG1        0.0644
     38 H          12.8800    9.2480    8.8740 H       1  LIG1        0.0423
     39 H          13.3280   10.6990    9.8550 H       1  LIG1        0.0363
     40 N          10.0540    1.0690   11.1770 N.pl3   1  LIG1       -0.8022
     41 H          10.4890    0.5710   10.4140 H       1  LIG1        0.3797
     42 H           9.0840    0.9080   11.4060 H       1  LIG1        0.3696
@<TRIPOS>BOND
     1     1     2   ar
     2     2     3   ar
     3     3     4   ar
     4     4     5   ar
     5     5     6   ar
     6     6     1   ar
     7     6     7    1
     8     7     8    1
     9     7     9    1
    10     5    10   ar
    11    10    11    1
    12    10    12   ar
    13    12    13   ar
    14    13    14    1
    15    13    15   ar
    16    15     4   ar
    17    12    16    1
    18    16    17    1
    19    16    18    1
    20    16    19    1
    21    19    20    1
    22    19    21    1
    23    21    22   ar
    24    22    23    1
    25    22    24   ar
    26    24    25   ar
    27    25    26    1
    28    25    27   ar
    29    27    28    1
    30    27    29   ar
    31    29    21   ar
    32    29    30    1
    33    30    31    1
    34    31    32    1
    35    31    33    1
    36    31    34    1
    37    24    35    1
    38    35    36    1
    39    36    37    1
    40    36    38    1
    41    36    39    1
    42     2    40    1
    43    40    41    1
    44    40    42    1
