@<TRIPOS>MOLECULE
9_16b
 35 37 0 0 0
SMALL
USER_CHARGES
****
From 3DB ct
@<TRIPOS>ATOM
      1 N          10.1300    2.6280   12.8890 N.ar    1  LIG1       -0.6791
      2 C          10.7240    1.9690   11.8940 C.ar    1  LIG1        0.8017
      3 N          11.9980    2.1270   11.5350 N.ar    1  LIG1       -0.6711
      4 C          12.7320    3.0150   12.2160 C.ar    1  LIG1        0.5009
      5 C          12.2180    3.7610   13.2800 C.ar    1  LIG1       -0.4834
      6 C          10.8770    3.4990   13.5850 C.ar    1  LIG1        0.6977
      7 N          10.2060    4.1730   14.5910 N.pl3   1  LIG1       -0.7495
      8 H          10.7030    4.3700   15.4540 H       1  LIG1        0.3306
      9 H           9.2360    3.9000   14.7170 H       1  LIG1        0.3270
     10 C          13.0480    4.6980   13.9520 C.ar    1  LIG1       -0.0034
     11 H          12.6420    5.2940   14.7670 H       1  LIG1        0.1046
     12 C          14.3870    4.8780   13.5810 C.ar    1  LIG1       -0.0554
     13 C          14.8830    4.1280   12.5140 C.ar    1  LIG1       -0.0087
     14 H          15.9140    4.2530   12.1840 H       1  LIG1        0.1080
     15 C          14.0590    3.2120   11.8510 C.ar    1  LIG1       -0.2831
     16 H          14.4720    2.6400   11.0220 H       1  LIG1        0.1460
     17 C          15.2590    5.8880   14.2900 C.3     1  LIG1        0.0240
     18 H          15.7160    5.4170   15.1690 H       1  LIG1        0.0651
     19 H          14.6350    6.7160   14.6510 H       1  LIG1        0.0692
     20 N          16.2820    6.3760   13.3820 N.pl3   1  LIG1       -0.6073
     21 H          17.2460    6.1410   13.6090 H       1  LIG1        0.3358
     22 C          16.0310    7.1390   12.2610 C.ar    1  LIG1        0.4611
     23 C          14.7510    7.6840   12.0850 C.ar    1  LIG1       -0.3362
     24 H          13.9740    7.5010   12.8260 H       1  LIG1        0.1339
     25 C          14.4370    8.4680   10.9680 C.ar    1  LIG1        0.2346
     26 H          13.4340    8.8730   10.8630 H       1  LIG1        0.0500
     27 C          15.4090    8.7180   10.0070 C.ar    1  LIG1       -0.5453
     28 C          16.6870    8.1900   10.1580 C.ar    1  LIG1        0.2806
     29 H          17.4570    8.3790    9.4130 H       1  LIG1        0.0439
     30 C          16.9920    7.4070   11.2790 C.ar    1  LIG1       -0.4363
     31 H          18.0030    7.0130   11.3610 H       1  LIG1        0.1392
     32 CL         15.0330    9.6810    8.6320 Cl      1  LIG1        0.0748
     33 N           9.9780    1.0730   11.1930 N.pl3   1  LIG1       -0.8262
     34 H          10.3980    0.5580   10.4330 H       1  LIG1        0.3816
     35 H           9.0100    0.9270   11.4370 H       1  LIG1        0.3750
@<TRIPOS>BOND
     1     1     2   ar
     2     2     3   ar
     3     3     4   ar
     4     4     5   ar
     5     5     6   ar
     6     6     1   ar
     7     6     7    1
     8     7     8    1
     9     7     9    1
    10     5    10   ar
    11    10    11    1
    12    10    12   ar
    13    12    13   ar
    14    13    14    1
    15    13    15   ar
    16    15    16    1
    17    15     4   ar
    18    12    17    1
    19    17    18    1
    20    17    19    1
    21    17    20    1
    22    20    21    1
    23    20    22    1
    24    22    23   ar
    25    23    24    1
    26    23    25   ar
    27    25    26    1
    28    25    27   ar
    29    27    28   ar
    30    28    29    1
    31    28    30   ar
    32    30    31    1
    33    30    22   ar
    34    27    32    1
    35     2    33    1
    36    33    34    1
    37    33    35    1
