@<TRIPOS>MOLECULE
1a
 33 34 0 0 0
SMALL
GASTEIGER

@<TRIPOS>ATOM
      1 C           4.6461   -1.2028   -6.4985 C.3     1  LIG111     -0.0904
      2 H           4.8949   -1.4637   -7.5378 H       1  LIG111      0.0059
      3 H           5.5307   -0.7718   -6.0068 H       1  LIG111      0.0059
      4 C           4.2306   -2.4953   -5.7419 C.3     1  LIG111     -0.0605
      5 H           5.0809   -3.1926   -5.7153 H       1  LIG111      0.0253
      6 H           3.3849   -2.9679   -6.2628 H       1  LIG111      0.0253
      7 C           3.8098   -2.1402   -4.2924 C.3     1  LIG111     -0.0062
      8 H           4.6795   -1.6924   -3.7893 H       1  LIG111      0.0355
      9 C           2.6711   -1.0892   -4.3181 C.3     1  LIG111      0.0527
     10 H           1.7916   -1.5246   -4.8149 H       1  LIG111      0.0402
     11 C           3.1285    0.1620   -5.1188 C.3     1  LIG111     -0.0772
     12 H           3.9746    0.6297   -4.5939 H       1  LIG111      0.0067
     13 H           2.2919    0.8741   -5.1731 H       1  LIG111      0.0067
     14 N           3.5552   -0.1858   -6.5051 N.4     1  LIG111      0.3784
     15 H           2.7619   -0.5938   -6.9743 H       1  LIG111     -0.0822
     16 C           3.9539    1.0306   -7.2693 C.3     1  LIG111     -0.1032
     17 H           3.1007    1.7224   -7.3285 H       1  LIG111      0.0023
     18 H           4.2624    0.7409   -8.2847 H       1  LIG111      0.0023
     19 H           4.7929    1.5259   -6.7584 H       1  LIG111      0.0023
     20 C           2.2976   -0.7199   -2.9045 C.2     1  LIG111      0.3578
     21 O           1.1208   -0.3881   -2.6003 O.co2   1  LIG111     -0.2461
     22 O           3.2470   -0.7721   -2.0778 O.co2   1  LIG111     -0.2461
     23 C           3.3861   -3.3795   -3.4798 C.ar    1  LIG111     -0.0435
     24 C           4.2767   -4.4383   -3.2580 C.ar    1  LIG111     -0.0569
     25 H           5.2804   -4.3896   -3.6648 H       1  LIG111      0.0621
     26 C           3.8837   -5.5568   -2.5174 C.ar    1  LIG111     -0.0431
     27 H           4.5837   -6.3671   -2.3488 H       1  LIG111      0.0632
     28 C           2.5912   -5.6327   -1.9940 C.ar    1  LIG111      0.0410
     29 C           1.6941   -4.5857   -2.2143 C.ar    1  LIG111     -0.0431
     30 H           0.6893   -4.6397   -1.8109 H       1  LIG111      0.0632
     31 C           2.0899   -3.4680   -2.9546 C.ar    1  LIG111     -0.0569
     32 H           1.3866   -2.6608   -3.1243 H       1  LIG111      0.0621
     33 CL          2.0980   -7.0344   -1.0663 Cl      1  LIG111     -0.0835
@<TRIPOS>BOND
     1    18    16    1
     2     2     1    1
     3    17    16    1
     4    16    19    1
     5    16    14    1
     6    15    14    1
     7    14     1    1
     8    14    11    1
     9     1     3    1
    10     1     4    1
    11     6     4    1
    12     4     5    1
    13     4     7    1
    14    13    11    1
    15    11    12    1
    16    11     9    1
    17    10     9    1
    18     9     7    1
    19     9    20    1
    20     7     8    1
    21     7    23    1
    22    25    24    1
    23    23    24   ar
    24    23    31   ar
    25    24    26   ar
    26    32    31    1
    27    31    29   ar
    28    20    21   ar
    29    20    22   ar
    30    26    27    1
    31    26    28   ar
    32    29    28   ar
    33    29    30    1
    34    28    33    1
