@<TRIPOS>MOLECULE
1b
 37 38 0 0 0
SMALL
GASTEIGER

@<TRIPOS>ATOM
      1 C           4.5633   -1.0920   -6.3638 C.3     1  LIG111     -0.0904
      2 H           4.7417   -1.3885   -7.4367 H       1  LIG111      0.0059
      3 H           5.5392   -0.7550   -5.9108 H       1  LIG111      0.0059
      4 C           3.9904   -2.2603   -5.5779 C.3     1  LIG111     -0.0605
      5 H           4.7630   -3.0776   -5.5696 H       1  LIG111      0.0253
      6 H           3.0783   -2.6714   -6.0879 H       1  LIG111      0.0253
      7 C           3.6580   -1.8683   -4.1428 C.3     1  LIG111     -0.0064
      8 H           4.6143   -1.5674   -3.6197 H       1  LIG111      0.0355
      9 C           2.7279   -0.6504   -4.1329 C.3     1  LIG111      0.0485
     10 H           1.7151   -0.9419   -4.5345 H       1  LIG111      0.0401
     11 C           3.3181    0.4978   -4.9599 C.3     1  LIG111     -0.0773
     12 H           4.2726    0.8574   -4.4747 H       1  LIG111      0.0067
     13 H           2.5859    1.3535   -5.0012 H       1  LIG111      0.0067
     14 N           3.6318    0.0870   -6.3636 N.4     1  LIG111      0.3784
     15 H           2.7531   -0.2074   -6.8110 H       1  LIG111     -0.0822
     16 C           4.2022    1.2203   -7.1326 C.3     1  LIG111     -0.1032
     17 H           3.4591    2.0624   -7.1579 H       1  LIG111      0.0023
     18 H           4.4327    0.8881   -8.1800 H       1  LIG111      0.0023
     19 H           5.1486    1.5680   -6.6373 H       1  LIG111      0.0023
     20 C           2.5074   -0.1266   -2.7308 C.2     1  LIG111      0.3087
     21 O           3.3695    0.2671   -1.9512 O.2     1  LIG111     -0.2506
     22 O           1.1962   -0.1467   -2.3483 O.3     1  LIG111     -0.4678
     23 C           0.9030    0.3353   -1.0281 C.3     1  LIG111      0.0817
     24 H           1.5008   -0.3403   -0.3680 H       1  LIG111      0.0661
     25 H          -0.1908    0.2490   -0.8199 H       1  LIG111      0.0661
     26 H           1.2311    1.3997   -0.9470 H       1  LIG111      0.0661
     27 C           3.0582   -3.0324   -3.4237 C.ar    1  LIG111     -0.0435
     28 C           3.8588   -3.9462   -2.7261 C.ar    1  LIG111     -0.0569
     29 H           4.9525   -3.8280   -2.7082 H       1  LIG111      0.0621
     30 C           3.2834   -5.0181   -2.0511 C.ar    1  LIG111     -0.0431
     31 H           3.9218   -5.7341   -1.5089 H       1  LIG111      0.0632
     32 C           1.8933   -5.1850   -2.0637 C.ar    1  LIG111      0.0410
     33 C           1.0861   -4.2758   -2.7566 C.ar    1  LIG111     -0.0431
     34 H          -0.0084   -4.4037   -2.7692 H       1  LIG111      0.0632
     35 C           1.6693   -3.2056   -3.4321 C.ar    1  LIG111     -0.0569
     36 H           1.0246   -2.4974   -3.9763 H       1  LIG111      0.0621
     37 CL          1.1906   -6.4859   -1.2417 Cl      1  LIG111     -0.0835
@<TRIPOS>BOND
     1    18    16    1
     2     2     1    1
     3    17    16    1
     4    16    19    1
     5    16    14    1
     6    15    14    1
     7     1    14    1
     8     1     3    1
     9     1     4    1
    10    14    11    1
    11     6     4    1
    12     4     5    1
    13     4     7    1
    14    13    11    1
    15    11    12    1
    16    11     9    1
    17    10     9    1
    18     7     9    1
    19     7     8    1
    20     7    27    1
    21     9    20    1
    22    36    35    1
    23    35    27   ar
    24    35    33   ar
    25    27    28   ar
    26    34    33    1
    27    33    32   ar
    28    20    22    1
    29    20    21    2
    30    28    29    1
    31    28    30   ar
    32    22    23    1
    33    32    30   ar
    34    32    37    1
    35    30    31    1
    36    23    26    1
    37    23    25    1
    38    23    24    1
