@<TRIPOS>MOLECULE
1d
 46 47 0 0 0
SMALL
GASTEIGER

@<TRIPOS>ATOM
      1 C           4.3955   -0.9644   -6.4958 C.3     1  LIG111     -0.0904
      2 H           4.4343   -1.2917   -7.5735 H       1  LIG111      0.0059
      3 H           5.4267   -0.6277   -6.1869 H       1  LIG111      0.0059
      4 C           3.9309   -2.1090   -5.6085 C.3     1  LIG111     -0.0605
      5 H           4.6794   -2.9422   -5.7045 H       1  LIG111      0.0253
      6 H           2.9434   -2.5089   -5.9617 H       1  LIG111      0.0253
      7 C           3.8353   -1.6824   -4.1486 C.3     1  LIG111     -0.0064
      8 H           4.8672   -1.3925   -3.7897 H       1  LIG111      0.0355
      9 C           2.9423   -0.4433   -4.0216 C.3     1  LIG111      0.0485
     10 H           1.8726   -0.7275   -4.2374 H       1  LIG111      0.0401
     11 C           3.3978    0.6752   -4.9648 C.3     1  LIG111     -0.0773
     12 H           4.4202    1.0386   -4.6507 H       1  LIG111      0.0067
     13 H           2.6727    1.5371   -4.9140 H       1  LIG111      0.0067
     14 N           3.4810    0.2211   -6.3902 N.4     1  LIG111      0.3784
     15 H           2.5411   -0.0795   -6.6814 H       1  LIG111     -0.0822
     16 C           3.9260    1.3242   -7.2758 C.3     1  LIG111     -0.1032
     17 H           3.1935    2.1732   -7.2094 H       1  LIG111      0.0023
     18 H           3.9777    0.9518   -8.3341 H       1  LIG111      0.0023
     19 H           4.9410    1.6803   -6.9538 H       1  LIG111      0.0023
     20 C           2.9751    0.1131   -2.6086 C.2     1  LIG111      0.3095
     21 O           3.9852    0.4887   -2.0217 O.2     1  LIG111     -0.2506
     22 O           1.7479    0.1224   -2.0323 O.3     1  LIG111     -0.4587
     23 C           1.5728    0.6231   -0.6689 C.3     1  LIG111      0.1052
     24 C           2.6042    1.6957   -0.3692 C.3     1  LIG111     -0.0254
     25 H           2.5893    2.4874   -1.1575 H       1  LIG111      0.0268
     26 H           3.6204    1.2345   -0.3419 H       1  LIG111      0.0268
     27 H           2.3932    2.1671    0.6205 H       1  LIG111      0.0268
     28 C           1.6441   -0.5223    0.3248 C.3     1  LIG111     -0.0254
     29 H           1.3801   -0.1718    1.3520 H       1  LIG111      0.0268
     30 H           2.6713   -0.9577    0.3414 H       1  LIG111      0.0268
     31 H           0.9209   -1.3172    0.0213 H       1  LIG111      0.0268
     32 C           0.1682    1.2182   -0.7071 C.3     1  LIG111     -0.0254
     33 H          -0.5752    0.4425   -1.0064 H       1  LIG111      0.0268
     34 H           0.1242    2.0618   -1.4357 H       1  LIG111      0.0268
     35 H          -0.0891    1.5986    0.3101 H       1  LIG111      0.0268
     36 C           3.3324   -2.8185   -3.3168 C.ar    1  LIG111     -0.0435
     37 C           4.2147   -3.7356   -2.7327 C.ar    1  LIG111     -0.0569
     38 H           5.2993   -3.6435   -2.8923 H       1  LIG111      0.0621
     39 C           3.7330   -4.7792   -1.9478 C.ar    1  LIG111     -0.0431
     40 H           4.4340   -5.4988   -1.4954 H       1  LIG111      0.0632
     41 C           2.3545   -4.9117   -1.7392 C.ar    1  LIG111      0.0410
     42 C           1.4645   -4.0012   -2.3196 C.ar    1  LIG111     -0.0431
     43 H           0.3794   -4.1046   -2.1585 H       1  LIG111      0.0632
     44 C           1.9555   -2.9607   -3.1053 C.ar    1  LIG111     -0.0569
     45 H           1.2481   -2.2517   -3.5632 H       1  LIG111      0.0621
     46 CL          1.7637   -6.1773   -0.7834 Cl      1  LIG111     -0.0835
@<TRIPOS>BOND
     1    18    16    1
     2     2     1    1
     3    16    17    1
     4    16    19    1
     5    16    14    1
     6    15    14    1
     7     1    14    1
     8     1     3    1
     9     1     4    1
    10    14    11    1
    11     6     4    1
    12     5     4    1
    13     4     7    1
    14    11    13    1
    15    11    12    1
    16    11     9    1
    17    10     9    1
    18     7     9    1
    19     7     8    1
    20     7    36    1
    21     9    20    1
    22    45    44    1
    23    36    44   ar
    24    36    37   ar
    25    44    42   ar
    26    38    37    1
    27    37    39   ar
    28    20    22    1
    29    20    21    2
    30    42    43    1
    31    42    41   ar
    32    22    23    1
    33    39    41   ar
    34    39    40    1
    35    41    46    1
    36    34    32    1
    37    25    24    1
    38    33    32    1
    39    32    23    1
    40    32    35    1
    41    23    24    1
    42    23    28    1
    43    24    26    1
    44    24    27    1
    45    31    28    1
    46    28    30    1
    47    28    29    1
