@<TRIPOS>MOLECULE
1k
 45 47 0 0 0
SMALL
GASTEIGER

@<TRIPOS>ATOM
      1 C           4.4747   -1.8690   -6.5339 C.3     1  LIG111     -0.0904
      2 H           4.4145   -2.1376   -7.6039 H       1  LIG111      0.0059
      3 H           5.5445   -1.8604   -6.2625 H       1  LIG111      0.0059
      4 C           3.7702   -2.9923   -5.7197 C.3     1  LIG111     -0.0605
      5 H           4.2825   -3.9558   -5.8867 H       1  LIG111      0.0253
      6 H           2.7262   -3.1068   -6.0547 H       1  LIG111      0.0253
      7 C           3.8070   -2.6430   -4.2101 C.3     1  LIG111     -0.0082
      8 H           4.8713   -2.5637   -3.9485 H       1  LIG111      0.0355
      9 C           3.1451   -1.2542   -3.9931 C.3     1  LIG111      0.0278
     10 H           2.1489   -1.3181   -4.4609 H       1  LIG111      0.0381
     11 C           3.8752   -0.1722   -4.8387 C.3     1  LIG111     -0.0792
     12 H           4.9082   -0.0500   -4.4821 H       1  LIG111      0.0066
     13 H           3.3605    0.7916   -4.6743 H       1  LIG111      0.0066
     14 N           3.8812   -0.5216   -6.2910 N.4     1  LIG111      0.3784
     15 H           2.8503   -0.5543   -6.6436 H       1  LIG111     -0.0822
     16 C           4.5701    0.5275   -7.0965 C.3     1  LIG111     -0.1032
     17 H           5.6412    0.5850   -6.8427 H       1  LIG111      0.0023
     18 H           4.1300    1.5234   -6.9200 H       1  LIG111      0.0023
     19 H           4.4934    0.3215   -8.1775 H       1  LIG111      0.0023
     20 C           2.8667   -0.8433   -2.5537 C.2     1  LIG111      0.2174
     21 N           2.1212    0.2145   -2.1338 N.am    1  LIG111     -0.3013
     22 C           2.4709    0.8709   -0.8791 C.3     1  LIG111      0.0147
     23 H           3.5412    1.1240   -0.7966 H       1  LIG111      0.0464
     24 H           2.1713    0.2333   -0.0313 H       1  LIG111      0.0464
     25 C           1.5890    2.1379   -0.9637 C.3     1  LIG111     -0.0357
     26 H           2.1079    2.9111   -1.5553 H       1  LIG111      0.0281
     27 H           1.3339    2.5536    0.0248 H       1  LIG111      0.0281
     28 C           0.3587    1.6428   -1.7556 C.3     1  LIG111     -0.0357
     29 H          -0.2596    2.4651   -2.1518 H       1  LIG111      0.0281
     30 H          -0.2624    1.0159   -1.0931 H       1  LIG111      0.0281
     31 C           0.9879    0.7662   -2.8648 C.3     1  LIG111      0.0147
     32 H           0.2529    0.0370   -3.2310 H       1  LIG111      0.0464
     33 H           1.3398    1.4170   -3.6794 H       1  LIG111      0.0464
     34 O           3.3781   -1.5625   -1.7092 O.2     1  LIG111     -0.2754
     35 C           3.1711   -3.7670   -3.3669 C.ar    1  LIG111     -0.0436
     36 C           1.8187   -3.7415   -3.0010 C.ar    1  LIG111     -0.0569
     37 H           1.1551   -2.9646   -3.3600 H       1  LIG111      0.0621
     38 C           1.2881   -4.7261   -2.1622 C.ar    1  LIG111     -0.0431
     39 H           0.2463   -4.6822   -1.8608 H       1  LIG111      0.0632
     40 C           2.0950   -5.7715   -1.7085 C.ar    1  LIG111      0.0410
     41 C           3.4295   -5.8379   -2.1132 C.ar    1  LIG111     -0.0431
     42 H           4.0541   -6.6592   -1.7768 H       1  LIG111      0.0632
     43 C           3.9571   -4.8493   -2.9488 C.ar    1  LIG111     -0.0569
     44 H           4.9904   -4.9369   -3.2694 H       1  LIG111      0.0621
     45 CL          1.4365   -6.9934   -0.6402 Cl      1  LIG111     -0.0835
@<TRIPOS>BOND
     1    19    16    1
     2     2     1    1
     3    16    18    1
     4    16    17    1
     5    16    14    1
     6    15    14    1
     7     1    14    1
     8     1     3    1
     9     1     4    1
    10    14    11    1
    11     6     4    1
    12     5     4    1
    13     4     7    1
    14    11    13    1
    15    11    12    1
    16    11     9    1
    17    10     9    1
    18     7     9    1
    19     7     8    1
    20     7    35    1
    21     9    20    1
    22    33    31    1
    23    35    36   ar
    24    35    43   ar
    25    37    36    1
    26    44    43    1
    27    32    31    1
    28    36    38   ar
    29    43    41   ar
    30    31    21    1
    31    31    28    1
    32    20    21   am
    33    20    34    2
    34    38    39    1
    35    38    40   ar
    36    29    28    1
    37    21    22    1
    38    41    42    1
    39    41    40   ar
    40    28    30    1
    41    28    25    1
    42    40    45    1
    43    26    25    1
    44    25    22    1
    45    25    27    1
    46    22    23    1
    47    22    24    1
