@<TRIPOS>MOLECULE
1m
 45 47 0 0 0
SMALL
GASTEIGER

@<TRIPOS>ATOM
      1 C           4.9287   -1.6832   -6.7560 C.3     1  LIG111     -0.0904
      2 H           5.1026   -2.1738   -7.7306 H       1  LIG111      0.0059
      3 H           5.9178   -1.4114   -6.3480 H       1  LIG111      0.0059
      4 C           4.2674   -2.7208   -5.8072 C.3     1  LIG111     -0.0605
      5 H           4.9316   -3.5916   -5.6716 H       1  LIG111      0.0253
      6 H           3.3330   -3.0780   -6.2673 H       1  LIG111      0.0253
      7 C           3.9865   -2.0707   -4.4281 C.3     1  LIG111     -0.0080
      8 H           4.9582   -1.7517   -4.0141 H       1  LIG111      0.0355
      9 C           3.1178   -0.7994   -4.6104 C.3     1  LIG111      0.0301
     10 H           2.1245   -1.0706   -5.0013 H       1  LIG111      0.0384
     11 C           3.8067    0.1787   -5.6017 C.3     1  LIG111     -0.0790
     12 H           4.7460    0.5352   -5.1451 H       1  LIG111      0.0066
     13 H           3.1499    1.0583   -5.7261 H       1  LIG111      0.0066
     14 N           4.0859   -0.4638   -6.9180 N.4     1  LIG111      0.3784
     15 H           3.1338   -0.7721   -7.3492 H       1  LIG111     -0.0822
     16 C           4.7051    0.5009   -7.8709 C.3     1  LIG111     -0.1032
     17 H           5.7006    0.8256   -7.5247 H       1  LIG111      0.0023
     18 H           4.0801    1.4015   -7.9865 H       1  LIG111      0.0023
     19 H           4.8353    0.0525   -8.8702 H       1  LIG111      0.0023
     20 C           2.9059   -0.1277   -3.2806 C.ar    1  LIG111      0.2293
     21 O           3.8162   -0.1753   -2.3006 O.2     1  LIG111     -0.3378
     22 N           3.3247    0.5559   -1.1781 N.ar    1  LIG111     -0.0610
     23 C           2.1734    0.9965   -1.5115 C.ar    1  LIG111      0.1743
     24 N           1.9434    0.5426   -2.8440 N.ar    1  LIG111     -0.1956
     25 C           1.2410    1.8353   -0.6793 C.3     1  LIG111      0.0167
     26 H           1.0110    1.2726    0.2415 H       1  LIG111      0.0375
     27 C          -0.0735    2.0794   -1.4646 C.3     1  LIG111     -0.0556
     28 H          -0.9223    2.1590   -0.7669 H       1  LIG111      0.0236
     29 H          -0.2663    1.2467   -2.1588 H       1  LIG111      0.0236
     30 H          -0.0069    3.0138   -2.0434 H       1  LIG111      0.0236
     31 C           1.9276    3.1724   -0.2975 C.3     1  LIG111     -0.0556
     32 H           2.1775    3.7489   -1.2017 H       1  LIG111      0.0236
     33 H           2.8559    2.9750    0.2613 H       1  LIG111      0.0236
     34 H           1.2604    3.7790    0.3343 H       1  LIG111      0.0236
     35 C           3.3199   -3.0558   -3.4464 C.ar    1  LIG111     -0.0436
     36 C           2.9694   -4.3511   -3.8493 C.ar    1  LIG111     -0.0569
     37 H           3.1668   -4.6931   -4.8586 H       1  LIG111      0.0621
     38 C           2.3520   -5.2326   -2.9568 C.ar    1  LIG111     -0.0431
     39 H           2.0852   -6.2349   -3.2768 H       1  LIG111      0.0632
     40 C           2.0745   -4.8276   -1.6497 C.ar    1  LIG111      0.0410
     41 C           2.4233   -3.5401   -1.2367 C.ar    1  LIG111     -0.0431
     42 H           2.2094   -3.2242   -0.2206 H       1  LIG111      0.0632
     43 C           3.0448   -2.6626   -2.1296 C.ar    1  LIG111     -0.0569
     44 H           3.3072   -1.6678   -1.7837 H       1  LIG111      0.0621
     45 CL          1.2930   -5.9286   -0.5341 Cl      1  LIG111     -0.0835
@<TRIPOS>BOND
     1    19    16    1
     2    18    16    1
     3    16    17    1
     4    16    14    1
     5     2     1    1
     6    15    14    1
     7    14     1    1
     8    14    11    1
     9     1     3    1
    10     1     4    1
    11     6     4    1
    12     4     5    1
    13     4     7    1
    14    13    11    1
    15    11    12    1
    16    11     9    1
    17    10     9    1
    18    37    36    1
    19     9     7    1
    20     9    20    1
    21     7     8    1
    22     7    35    1
    23    36    35   ar
    24    36    38   ar
    25    35    43   ar
    26    20    24   ar
    27    20    21   ar
    28    39    38    1
    29    38    40   ar
    30    24    23   ar
    31    21    22   ar
    32    29    27    1
    33    43    44    1
    34    43    41   ar
    35    30    27    1
    36    40    41   ar
    37    40    45    1
    38    23    22   ar
    39    23    25    1
    40    27    28    1
    41    27    25    1
    42    41    42    1
    43    32    31    1
    44    25    31    1
    45    25    26    1
    46    31    33    1
    47    31    34    1
