@<TRIPOS>MOLECULE
1y
 63 67 0 0 0
SMALL
GASTEIGER

@<TRIPOS>ATOM
      1 C           4.3288   -1.7382   -6.1658 C.3     1  LIG111     -0.0904
      2 H           4.3984   -1.8597   -7.2614 H       1  LIG111      0.0059
      3 H           5.3593   -1.7484   -5.7708 H       1  LIG111      0.0059
      4 C           3.5664   -2.9636   -5.5931 C.3     1  LIG111     -0.0609
      5 H           4.1109   -3.8938   -5.8316 H       1  LIG111      0.0253
      6 H           2.5743   -3.0232   -6.0672 H       1  LIG111      0.0253
      7 C           3.4321   -2.8265   -4.0550 C.3     1  LIG111     -0.0133
      8 H           4.4574   -2.7845   -3.6516 H       1  LIG111      0.0351
      9 C           2.7250   -1.4908   -3.6945 C.3     1  LIG111     -0.0147
     10 H           1.6996   -1.4940   -4.1003 H       1  LIG111      0.0321
     11 C           3.5049   -0.3069   -4.3380 C.3     1  LIG111     -0.0844
     12 H           4.5004   -0.2418   -3.8669 H       1  LIG111      0.0063
     13 H           2.9708    0.6294   -4.0985 H       1  LIG111      0.0063
     14 N           3.6553   -0.4561   -5.8134 N.4     1  LIG111      0.3781
     15 H           2.6576   -0.4748   -6.2507 H       1  LIG111     -0.0822
     16 C           4.3745    0.7093   -6.4026 C.3     1  LIG111     -0.1032
     17 H           5.4146    0.7668   -6.0407 H       1  LIG111      0.0023
     18 H           3.8758    1.6567   -6.1402 H       1  LIG111      0.0023
     19 H           4.4131    0.6444   -7.5029 H       1  LIG111      0.0023
     20 C           2.6376   -1.3166   -2.1523 C.3     1  LIG111      0.0957
     21 H           3.5277   -0.7772   -1.7853 H       1  LIG111      0.0700
     22 H           2.6080   -2.3083   -1.6691 H       1  LIG111      0.0700
     23 O           1.4385   -0.5724   -1.8604 O.3     1  LIG111     -0.4502
     24 C           1.6504    0.5894   -1.2224 C.2     1  LIG111      0.4007
     25 N           0.4916    1.2410   -0.9762 N.am    1  LIG111     -0.2756
     26 H          -0.3679    0.8204   -1.2721 H       1  LIG111      0.1525
     27 C           0.4515    2.5384   -0.2880 C.3     1  LIG111      0.0385
     28 C          -1.0087    3.0595   -0.1755 C.3     1  LIG111     -0.0286
     29 H          -1.6293    2.3713    0.4170 H       1  LIG111      0.0288
     30 H          -1.4541    3.1254   -1.1809 H       1  LIG111      0.0288
     31 C          -1.0251    4.4516    0.5109 C.3     1  LIG111     -0.0386
     32 H          -2.0678    4.8072    0.5933 H       1  LIG111      0.0302
     33 C          -0.4060    4.3375    1.9294 C.3     1  LIG111     -0.0472
     34 H          -0.9940    3.6340    2.5414 H       1  LIG111      0.0271
     35 H          -0.4325    5.3187    2.4313 H       1  LIG111      0.0271
     36 C           1.0603    3.8422    1.8112 C.3     1  LIG111     -0.0386
     37 H           1.5025    3.7646    2.8205 H       1  LIG111      0.0302
     38 C           1.0849    2.4476    1.1292 C.3     1  LIG111     -0.0286
     39 H           2.1203    2.0806    1.0463 H       1  LIG111      0.0288
     40 H           0.5338    1.7405    1.7664 H       1  LIG111      0.0288
     41 C           1.8822    4.8540    0.9715 C.3     1  LIG111     -0.0472
     42 H           2.9297    4.5186    0.8964 H       1  LIG111      0.0271
     43 H           1.8816    5.8418    1.4610 H       1  LIG111      0.0271
     44 C           1.2555    4.9624   -0.4424 C.3     1  LIG111     -0.0386
     45 H           1.8416    5.6759   -1.0488 H       1  LIG111      0.0302
     46 C           1.2724    3.5686   -1.1209 C.3     1  LIG111     -0.0286
     47 H           0.8500    3.6528   -2.1352 H       1  LIG111      0.0288
     48 H           2.3147    3.2236   -1.2210 H       1  LIG111      0.0288
     49 C          -0.2074    5.4635   -0.3326 C.3     1  LIG111     -0.0472
     50 H          -0.2308    6.4587    0.1413 H       1  LIG111      0.0271
     51 H          -0.6502    5.5612   -1.3375 H       1  LIG111      0.0271
     52 O           2.7688    0.9719   -0.9180 O.2     1  LIG111     -0.2265
     53 C           2.7053   -4.0393   -3.4411 C.ar    1  LIG111     -0.0439
     54 C           1.3205   -3.9968   -3.2306 C.ar    1  LIG111     -0.0569
     55 H           0.7465   -3.1177   -3.5052 H       1  LIG111      0.0621
     56 C           0.6504   -5.0857   -2.6660 C.ar    1  LIG111     -0.0431
     57 H          -0.4213   -5.0409   -2.5007 H       1  LIG111      0.0632
     58 C           1.3584   -6.2363   -2.3129 C.ar    1  LIG111      0.0410
     59 C           2.7366   -6.2929   -2.5291 C.ar    1  LIG111     -0.0431
     60 H           3.2867   -7.1892   -2.2595 H       1  LIG111      0.0632
     61 C           3.4051   -5.2008   -3.0902 C.ar    1  LIG111     -0.0569
     62 H           4.4749   -5.2742   -3.2487 H       1  LIG111      0.0621
     63 CL          0.5215   -7.6013   -1.6024 Cl      1  LIG111     -0.0835
@<TRIPOS>BOND
     1    19    16    1
     2     2     1    1
     3    16    18    1
     4    16    17    1
     5    16    14    1
     6    15    14    1
     7     1    14    1
     8     1     3    1
     9     1     4    1
    10     6     4    1
    11     5     4    1
    12    14    11    1
    13     4     7    1
    14    11    13    1
    15    11    12    1
    16    11     9    1
    17    10     9    1
    18     7     9    1
    19     7     8    1
    20     7    53    1
    21     9    20    1
    22    55    54    1
    23    53    54   ar
    24    53    61   ar
    25    62    61    1
    26    54    56   ar
    27    61    59   ar
    28    56    57    1
    29    56    58   ar
    30    59    58   ar
    31    59    60    1
    32    58    63    1
    33    20    23    1
    34    20    21    1
    35    20    22    1
    36    47    46    1
    37    23    24    1
    38    51    49    1
    39    26    25    1
    40    24    25   am
    41    24    52    2
    42    48    46    1
    43    30    28    1
    44    46    44    1
    45    46    27    1
    46    45    44    1
    47    25    27    1
    48    44    49    1
    49    44    41    1
    50    49    50    1
    51    49    31    1
    52    27    28    1
    53    27    38    1
    54    28    29    1
    55    28    31    1
    56    31    32    1
    57    31    33    1
    58    42    41    1
    59    41    43    1
    60    41    36    1
    61    39    38    1
    62    38    40    1
    63    38    36    1
    64    36    33    1
    65    36    37    1
    66    33    35    1
    67    33    34    1
