@<TRIPOS>MOLECULE
2a
 36 37 0 0 0
SMALL
GASTEIGER

@<TRIPOS>ATOM
      1 C           4.3966   -1.8635   -6.5823 C.3     1  LIG111     -0.0904
      2 H           4.2024   -2.1746   -7.6240 H       1  LIG111      0.0059
      3 H           5.4913   -1.8644   -6.4393 H       1  LIG111      0.0059
      4 C           3.7745   -2.9267   -5.6367 C.3     1  LIG111     -0.0610
      5 H           4.2345   -3.9128   -5.8188 H       1  LIG111      0.0253
      6 H           2.6993   -3.0105   -5.8576 H       1  LIG111      0.0253
      7 C           4.0014   -2.5207   -4.1571 C.3     1  LIG111     -0.0159
      8 H           5.0923   -2.4769   -4.0042 H       1  LIG111      0.0350
      9 C           3.4275   -1.0998   -3.9004 C.3     1  LIG111     -0.0390
     10 H           2.3378   -1.1193   -4.0678 H       1  LIG111      0.0294
     11 C           4.0686   -0.1000   -4.9076 C.3     1  LIG111     -0.0870
     12 H           5.1562   -0.0453   -4.7340 H       1  LIG111      0.0062
     13 H           3.6574    0.9037   -4.7035 H       1  LIG111      0.0062
     14 N           3.8438   -0.5039   -6.3214 N.4     1  LIG111      0.3780
     15 H           2.7682   -0.5374   -6.4853 H       1  LIG111     -0.0822
     16 C           4.4090    0.5020   -7.2650 C.3     1  LIG111     -0.1032
     17 H           5.5061    0.5651   -7.1756 H       1  LIG111      0.0023
     18 H           3.9967    1.5051   -7.0681 H       1  LIG111      0.0023
     19 H           4.1773    0.2442   -8.3120 H       1  LIG111      0.0023
     20 C           3.6650   -0.6347   -2.4356 C.3     1  LIG111      0.0509
     21 H           4.6208   -0.0981   -2.3333 H       1  LIG111      0.0381
     22 H           3.7008   -1.5077   -1.7646 H       1  LIG111      0.0381
     23 C           2.5358    0.2527   -1.9955 C.2     1  LIG111      0.3562
     24 O           1.4017    0.0483   -2.5039 O.co2   1  LIG111     -0.2464
     25 O           2.7804    1.1669   -1.1676 O.co2   1  LIG111     -0.2464
     26 C           3.3999   -3.5643   -3.1940 C.ar    1  LIG111     -0.0440
     27 C           2.0180   -3.7954   -3.1812 C.ar    1  LIG111     -0.0569
     28 H           1.3642   -3.2616   -3.8644 H       1  LIG111      0.0621
     29 C           1.4560   -4.7189   -2.2951 C.ar    1  LIG111     -0.0431
     30 H           0.3835   -4.8840   -2.2888 H       1  LIG111      0.0632
     31 C           2.2740   -5.4327   -1.4169 C.ar    1  LIG111      0.0410
     32 C           3.6549   -5.2256   -1.4363 C.ar    1  LIG111     -0.0431
     33 H           4.2921   -5.7856   -0.7595 H       1  LIG111      0.0632
     34 C           4.2140   -4.3016   -2.3240 C.ar    1  LIG111     -0.0569
     35 H           5.2897   -4.1710   -2.3258 H       1  LIG111      0.0621
     36 CL          1.5726   -6.5828   -0.2971 Cl      1  LIG111     -0.0835
@<TRIPOS>BOND
     1    19    16    1
     2     2     1    1
     3    16    17    1
     4    16    18    1
     5    16    14    1
     6     1     3    1
     7     1    14    1
     8     1     4    1
     9    15    14    1
    10    14    11    1
    11     6     4    1
    12     5     4    1
    13     4     7    1
    14    11    12    1
    15    11    13    1
    16    11     9    1
    17     7     8    1
    18     7     9    1
    19     7    26    1
    20    10     9    1
    21     9    20    1
    22    28    27    1
    23    26    27   ar
    24    26    34   ar
    25    27    29   ar
    26    24    23   ar
    27    20    21    1
    28    20    23    1
    29    20    22    1
    30    35    34    1
    31    34    32   ar
    32    29    30    1
    33    29    31   ar
    34    23    25   ar
    35    32    31   ar
    36    32    33    1
    37    31    36    1
