@<TRIPOS>MOLECULE
2g
 44 45 0 0 0
SMALL
GASTEIGER

@<TRIPOS>ATOM
      1 C           4.4175   -1.9060   -6.5963 C.3     1  LIG111     -0.0904
      2 H           4.2784   -2.1170   -7.6942 H       1  LIG111      0.0059
      3 H           5.5221   -1.8458   -6.3739 H       1  LIG111      0.0059
      4 C           3.7797   -3.0048   -5.7615 C.3     1  LIG111     -0.0610
      5 H           4.2992   -3.9691   -6.0137 H       1  LIG111      0.0253
      6 H           2.6971   -3.1301   -6.0282 H       1  LIG111      0.0253
      7 C           3.9281   -2.7247   -4.2697 C.3     1  LIG111     -0.0160
      8 H           5.0307   -2.6971   -4.0176 H       1  LIG111      0.0350
      9 C           3.3447   -1.3462   -3.9382 C.3     1  LIG111     -0.0409
     10 H           2.2307   -1.3783   -4.1189 H       1  LIG111      0.0293
     11 C           3.9575   -0.2603   -4.8301 C.3     1  LIG111     -0.0871
     12 H           5.0626   -0.1579   -4.6040 H       1  LIG111      0.0062
     13 H           3.4486    0.7253   -4.6347 H       1  LIG111      0.0062
     14 N           3.8193   -0.5638   -6.2926 N.4     1  LIG111      0.3780
     15 H           2.8174   -0.6078   -6.5176 H       1  LIG111     -0.0822
     16 C           4.4493    0.4988   -7.1126 C.3     1  LIG111     -0.1032
     17 H           3.9478    1.4802   -6.8980 H       1  LIG111      0.0023
     18 H           4.3366    0.2502   -8.2022 H       1  LIG111      0.0023
     19 H           5.5406    0.5671   -6.8571 H       1  LIG111      0.0023
     20 C           3.5424   -0.9735   -2.4759 C.3     1  LIG111      0.0258
     21 H           4.6496   -0.9922   -2.2715 H       1  LIG111      0.0361
     22 H           3.0594   -1.7537   -1.8270 H       1  LIG111      0.0361
     23 C           2.9855    0.3852   -2.0790 C.2     1  LIG111      0.2153
     24 O           3.7338    1.2936   -1.6443 O.2     1  LIG111     -0.2756
     25 N           1.6352    0.6042   -2.2416 N.am    1  LIG111     -0.3076
     26 C           0.8971    1.3997   -1.2946 C.3     1  LIG111      0.0028
     27 H           0.3498    2.2146   -1.8405 H       1  LIG111      0.0428
     28 H           1.5928    1.8629   -0.5453 H       1  LIG111      0.0428
     29 H           0.1509    0.7576   -0.7539 H       1  LIG111      0.0428
     30 C           0.8912   -0.0545   -3.2787 C.3     1  LIG111      0.0028
     31 H           1.0366   -1.1649   -3.2023 H       1  LIG111      0.0428
     32 H           1.2354    0.2825   -4.2945 H       1  LIG111      0.0428
     33 H          -0.2048    0.1704   -3.1766 H       1  LIG111      0.0428
     34 C           3.2713   -3.8136   -3.4822 C.ar    1  LIG111     -0.0440
     35 C           3.6857   -5.1458   -3.5966 C.ar    1  LIG111     -0.0569
     36 H           4.5032   -5.4163   -4.2816 H       1  LIG111      0.0621
     37 C           3.0758   -6.1456   -2.8434 C.ar    1  LIG111     -0.0431
     38 H           3.4093   -7.1910   -2.9399 H       1  LIG111      0.0632
     39 C           2.0408   -5.8138   -1.9612 C.ar    1  LIG111      0.0410
     40 C           1.6221   -4.4848   -1.8347 C.ar    1  LIG111     -0.0431
     41 H           0.8116   -4.2212   -1.1363 H       1  LIG111      0.0632
     42 C           2.2377   -3.4920   -2.5937 C.ar    1  LIG111     -0.0569
     43 H           1.9049   -2.4473   -2.4864 H       1  LIG111      0.0621
     44 CL          1.2955   -7.0256   -1.0432 Cl      1  LIG111     -0.0835
@<TRIPOS>BOND
     1    18    16    1
     2     2     1    1
     3    16    17    1
     4    16    19    1
     5    16    14    1
     6     1     3    1
     7     1    14    1
     8     1     4    1
     9    15    14    1
    10    14    11    1
    11     6     4    1
    12     5     4    1
    13     4     7    1
    14    11    13    1
    15    11    12    1
    16    11     9    1
    17    32    30    1
    18    36    35    1
    19     7     8    1
    20     7     9    1
    21     7    34    1
    22    10     9    1
    23     9    20    1
    24    35    34   ar
    25    35    37   ar
    26    34    42   ar
    27    30    31    1
    28    30    33    1
    29    30    25    1
    30    38    37    1
    31    37    39   ar
    32    42    43    1
    33    42    40   ar
    34    20    21    1
    35    20    23    1
    36    20    22    1
    37    25    23   am
    38    25    26    1
    39    23    24    2
    40    39    40   ar
    41    39    44    1
    42    27    26    1
    43    40    41    1
    44    26    29    1
    45    26    28    1
