@<TRIPOS>MOLECULE
3d
 51 53 0 0 0
SMALL
GASTEIGER

@<TRIPOS>ATOM
      1 C           4.8449   -2.0448   -6.4269 C.3     1  LIG111     -0.0904
      2 H           4.9311   -2.5636   -7.4229 H       1  LIG111      0.0059
      3 H           5.8753   -1.7167   -6.1069 H       1  LIG111      0.0059
      4 C           4.2523   -2.9842   -5.3852 C.3     1  LIG111     -0.0610
      5 H           4.9511   -3.8577   -5.2779 H       1  LIG111      0.0253
      6 H           3.2656   -3.3895   -5.7330 H       1  LIG111      0.0253
      7 C           4.0897   -2.2921   -4.0353 C.3     1  LIG111     -0.0164
      8 H           5.1158   -1.9930   -3.6730 H       1  LIG111      0.0350
      9 C           3.2491   -1.0228   -4.2009 C.3     1  LIG111     -0.0487
     10 H           2.2153   -1.3333   -4.5360 H       1  LIG111      0.0289
     11 C           3.8581   -0.1158   -5.2722 C.3     1  LIG111     -0.0875
     12 H           4.8800    0.2353   -4.9487 H       1  LIG111      0.0062
     13 H           3.2095    0.7979   -5.4187 H       1  LIG111      0.0062
     14 N           4.0123   -0.8098   -6.5959 N.4     1  LIG111      0.3780
     15 H           3.0783   -1.0988   -6.9121 H       1  LIG111     -0.0822
     16 C           4.5987    0.1021   -7.6069 C.3     1  LIG111     -0.1032
     17 H           3.9285    0.9952   -7.7326 H       1  LIG111      0.0023
     18 H           4.6982   -0.4399   -8.5848 H       1  LIG111      0.0023
     19 H           5.6100    0.4469   -7.2621 H       1  LIG111      0.0023
     20 C           3.0580   -0.2381   -2.9097 C.3     1  LIG111     -0.0431
     21 H           4.0869    0.0324   -2.5411 H       1  LIG111      0.0272
     22 H           2.5918   -0.9258   -2.1510 H       1  LIG111      0.0272
     23 C           2.2387    1.0324   -2.9816 C.3     1  LIG111      0.0245
     24 H           1.4875    0.9785   -3.8128 H       1  LIG111      0.0358
     25 H           2.9400    1.8803   -3.2172 H       1  LIG111      0.0358
     26 C           1.5030    1.3425   -1.6824 C.2     1  LIG111      0.2172
     27 O           0.3365    0.9304   -1.4956 O.2     1  LIG111     -0.2755
     28 N           2.1844    2.1157   -0.7707 N.am    1  LIG111     -0.2855
     29 H           3.1752    2.0119   -0.7289 H       1  LIG111      0.1548
     30 C           1.6351    3.0126    0.1707 C.ar    1  LIG111      0.0334
     31 C           2.0161    4.3737    0.0882 C.ar    1  LIG111     -0.0405
     32 H           2.7162    4.7154   -0.6896 H       1  LIG111      0.0636
     33 C           1.5108    5.2976    0.9956 C.ar    1  LIG111     -0.0600
     34 H           1.8165    6.3528    0.9216 H       1  LIG111      0.0618
     35 C           0.6239    4.8964    1.9953 C.ar    1  LIG111     -0.0616
     36 H           0.2278    5.6329    2.7099 H       1  LIG111      0.0618
     37 C           0.2509    3.5578    2.0866 C.ar    1  LIG111     -0.0600
     38 H          -0.4407    3.2322    2.8789 H       1  LIG111      0.0618
     39 C           0.7477    2.6142    1.1881 C.ar    1  LIG111     -0.0405
     40 H           0.4415    1.5612    1.2909 H       1  LIG111      0.0636
     41 C           3.4868   -3.2421   -3.0489 C.ar    1  LIG111     -0.0441
     42 C           4.1540   -4.4339   -2.7411 C.ar    1  LIG111     -0.0569
     43 H           5.1206   -4.6661   -3.2143 H       1  LIG111      0.0621
     44 C           3.6042   -5.3397   -1.8370 C.ar    1  LIG111     -0.0431
     45 H           4.1370   -6.2753   -1.6026 H       1  LIG111      0.0632
     46 C           2.3743   -5.0582   -1.2320 C.ar    1  LIG111      0.0410
     47 C           1.6982   -3.8706   -1.5350 C.ar    1  LIG111     -0.0431
     48 H           0.7287   -3.6473   -1.0618 H       1  LIG111      0.0632
     49 C           2.2556   -2.9710   -2.4409 C.ar    1  LIG111     -0.0569
     50 H           1.7127   -2.0428   -2.6735 H       1  LIG111      0.0621
     51 CL          1.7023   -6.1555   -0.1325 Cl      1  LIG111     -0.0835
@<TRIPOS>BOND
     1    18    16    1
     2    17    16    1
     3    16    19    1
     4    16    14    1
     5     2     1    1
     6    15    14    1
     7    14     1    1
     8    14    11    1
     9     1     3    1
    10     1     4    1
    11     6     4    1
    12    13    11    1
    13     4     5    1
    14     4     7    1
    15    11    12    1
    16    11     9    1
    17    10     9    1
    18     9     7    1
    19     9    20    1
    20     7     8    1
    21     7    41    1
    22    24    23    1
    23    25    23    1
    24    43    42    1
    25    41    42   ar
    26    41    49   ar
    27    23    20    1
    28    23    26    1
    29    20    21    1
    30    20    22    1
    31    42    44   ar
    32    50    49    1
    33    49    47   ar
    34    44    45    1
    35    44    46   ar
    36    26    27    2
    37    26    28   am
    38    47    46   ar
    39    47    48    1
    40    46    51    1
    41    28    29    1
    42    28    30    1
    43    32    31    1
    44    31    30   ar
    45    31    33   ar
    46    30    39   ar
    47    34    33    1
    48    33    35   ar
    49    39    40    1
    50    39    37   ar
    51    35    37   ar
    52    35    36    1
    53    37    38    1
