@<TRIPOS>MOLECULE
CPD_56-b
 61 62 0 0 0
SMALL
GASTEIGER

@<TRIPOS>ATOM
      1 C           5.4663  -10.0397   12.3638 C.2     1  CO211       0.4262
      2 O           4.8503  -10.7114   13.1762 O.2     1  CO211      -0.3945
      3 O           6.6747   -9.4750   12.5947 O.3     1  CO211      -0.2739
      4 C1          7.2932   -9.7090   13.8831 C.3     4  TBUTYL44    0.1094
      5 C2          6.4310   -9.0606   15.0058 C.3     4  TBUTYL44   -0.2327
      6 C3          7.5972  -11.2245   14.0877 C.3     4  TBUTYL44   -0.2331
      7 C4          8.6717   -8.9773   13.8932 C.3     4  TBUTYL44   -0.2094
      8 ****        6.7606   -9.3410   10.2690 H       2  APM222      0.1357
      9 ****        5.1903  -10.4608    8.5907 H       2  APM222      0.1102
     10 ****        6.1155   -9.0867    7.9830 H       2  APM222      0.1146
     11 ****        2.7759  -10.3125    8.5491 H       2  APM222      0.1304
     12 ****        5.0850   -6.8117    7.7183 H       2  APM222      0.1655
     13 ****        3.0641   -5.6663    6.8901 H       2  APM222      0.1652
     14 ****        0.8792   -6.7407    7.0336 H       2  APM222      0.1357
     15 ****        4.0540  -10.1484   10.8758 H       2  APM222      0.2450
     16 ****       -1.6137   -9.4214    7.0195 H       2  APM222      0.2731
     17 ****       -0.5891   -8.1317    6.3973 H       2  APM222      0.2932
     18 ****        0.8190  -10.8000    9.1326 H       2  APM222      0.2951
     19 ****       -0.8051  -10.9479    8.4722 H       2  APM222      0.2733
     20 ****        7.5705   -6.2642    8.4089 H       3  PIP333      0.0763
     21 ****        7.8394   -7.8323    9.1462 H       3  PIP333      0.0947
     22 ****        9.6780   -6.3203    9.7519 H       3  PIP333      0.0936
     23 ****        8.7546   -6.7970   11.2069 H       3  PIP333      0.0986
     24 ****        8.4226   -4.1571    9.6416 H       3  PIP333      0.0856
     25 C25         9.5535   -4.1358   11.4879 C.3     3  PIP333     -0.2068
     26 ****        6.8321   -3.5171   11.4820 H       3  PIP333      0.0961
     27 ****        7.0365   -5.1316   12.2242 H       3  PIP333      0.0999
     28 ****        4.9599   -5.0294   10.8340 H       3  PIP333      0.1270
     29 ****        5.9138   -4.5927    9.4059 H       3  PIP333      0.0714
     30 ****        6.9158   -9.1767   15.9859 H       4  TBUTYL44    0.0893
     31 ****        5.4201   -9.4794   15.0769 H       4  TBUTYL44    0.1089
     32 ****        6.3304   -7.9840   14.7950 H       4  TBUTYL44    0.0820
     33 ****        8.2999  -11.5617   13.3091 H       4  TBUTYL44    0.0762
     34 ****        6.7075  -11.8624   14.0260 H       4  TBUTYL44    0.1060
     35 ****        8.0674  -11.3962   15.0670 H       4  TBUTYL44    0.0922
     36 ****        8.5524   -7.8911   13.7668 H       4  TBUTYL44    0.0822
     37 ****        9.3218   -9.3393   13.0827 H       4  TBUTYL44    0.0794
     38 ****        9.1914   -9.1525   14.8492 H       4  TBUTYL44    0.0966
     39 C           5.4810   -7.5571   10.4451 C.2     2  APM222      0.2835
     40 CA          5.7144   -9.0248   10.1462 C.3     2  APM222      0.0284
     41 CB          5.3138   -9.3702    8.6817 C.3     2  APM222     -0.1314
     42 CG          4.0436   -8.6437    8.2077 C.ar    2  APM222     -0.0611
     43 CD1         2.8018   -9.2861    8.2105 C.ar    2  APM222     -0.0742
     44 CD2         4.1323   -7.3288    7.7388 C.ar    2  APM222     -0.0505
     45 CE1         1.6295   -8.6456    7.7729 C.ar    2  APM222     -0.1422
     46 CE2         2.9867   -6.6758    7.2845 C.ar    2  APM222     -0.1099
     47 CZ          1.7457   -7.3160    7.3367 C.ar    2  APM222     -0.0790
     48 CF          0.2909   -9.3719    7.7649 C.3     2  APM222      0.3416
     49 O           4.4544   -7.3243   11.0649 O.2     2  APM222     -0.3655
     50 N           4.9628   -9.8074   11.1259 N.am    2  APM222     -0.3745
     51 NG1        -0.6994   -8.9441    7.0159 N.3     2  APM222     -0.3302
     52 NG2         0.0931  -10.4420    8.5006 N.3     2  APM222     -0.3277
     53 N1          6.3129   -6.5467   10.0584 N.am    3  PIP333     -0.3371
     54 C2          7.5852   -6.7927    9.3738 C.3     3  PIP333     -0.0176
     55 C3          8.7098   -6.2176   10.2695 C.3     3  PIP333     -0.1755
     56 C4          8.4326   -4.7233   10.5897 C.3     3  PIP333     -0.1066
     57 C5          7.0437   -4.5783   11.2705 C.3     3  PIP333     -0.1751
     58 C6          5.9421   -5.1591   10.3512 C.3     3  PIP333     -0.0124
     59 ****       10.5309   -4.2321   10.9898 H       3  PIP333      0.0793
     60 ****        9.5946   -4.6667   12.4512 H       3  PIP333      0.0783
     61 ****        9.3653   -3.0682   11.6808 H       3  PIP333      0.0816
@<TRIPOS>BOND
     1     1     2    2
     2     1     3    1
     3    50     1   am
     4     4     5    1
     5     4     6    1
     6     4     7    1
     7     3     4    1
     8    40     8    1
     9    41     9    1
    10    41    10    1
    11    43    11    1
    12    44    12    1
    13    46    13    1
    14    47    14    1
    15    50    15    1
    16    51    16    1
    17    51    17    1
    18    52    18    1
    19    52    19    1
    20    54    20    1
    21    54    21    1
    22    55    22    1
    23    55    23    1
    24    56    24    1
    25    56    25    1
    26    57    26    1
    27    57    27    1
    28    58    28    1
    29    58    29    1
    30     5    30    1
    31     5    31    1
    32     5    32    1
    33     6    33    1
    34     6    34    1
    35     6    35    1
    36     7    36    1
    37     7    37    1
    38     7    38    1
    39    39    49    2
    40    39    40    1
    41    40    50    1
    42    40    41    1
    43    41    42    1
    44    42    44   ar
    45    42    43   ar
    46    43    45   ar
    47    45    48    1
    48    45    47   ar
    49    47    46   ar
    50    46    44   ar
    51    48    52    1
    52    48    51    1
    53    58    53    1
    54    53    54    1
    55    54    55    1
    56    55    56    1
    57    56    57    1
    58    57    58    1
    59    39    53   am
    60    25    59    1
    61    25    60    1
    62    25    61    1
