@<TRIPOS>MOLECULE
CPD_49-b
 74 77 0 0 0
SMALL
GASTEIGER

@<TRIPOS>ATOM
      1 C1          3.9021   -6.3668   15.2984 C.ar    4  NAPHTHALENE44   -0.1006
      2 C2          4.0684   -5.1505   15.9676 C.ar    4  NAPHTHALENE44   -0.1305
      3 C3          5.3363   -4.5703   16.0507 C.ar    4  NAPHTHALENE44   -0.0985
      4 C4          6.4342   -5.2053   15.4656 C.ar    4  NAPHTHALENE44   -0.1362
      5 ****        6.7699   -9.3054   10.4005 H       2  APM222      0.1310
      6 ****        5.2488  -10.4927    8.6601 H       2  APM222      0.1162
      7 ****        6.1652   -9.1148    8.0454 H       2  APM222      0.1109
      8 ****        2.8460  -10.3813    8.4973 H       2  APM222      0.1349
      9 ****        5.1145   -6.8573    7.7425 H       2  APM222      0.1627
     10 ****        3.0725   -5.6660    7.0388 H       2  APM222      0.1651
     11 ****        0.9061   -6.7216    7.2265 H       2  APM222      0.1364
     12 ****        3.9684   -9.9400   10.9895 H       2  APM222      0.2278
     13 ****       -1.5887   -9.3735    7.0801 H       2  APM222      0.2709
     14 ****       -0.5675   -8.0751    6.5021 H       2  APM222      0.2938
     15 ****        0.8639  -10.8909    9.0854 H       2  APM222      0.2950
     16 ****       -0.7664  -10.9880    8.4543 H       2  APM222      0.2711
     17 ****        7.5471   -6.2121    8.4450 H       3  PIP333      0.0902
     18 ****        7.8017   -7.8103    9.1366 H       3  PIP333      0.1088
     19 ****        9.2023   -4.3389   11.2902 H       3  PIP333      0.1044
     20 ****        8.7035   -6.7897   11.2363 H       3  PIP333      0.1242
     21 ****        8.4320   -4.1291    9.6925 H       3  PIP333      0.1029
     22 C22        11.8042   -7.8368    8.9939 C.3     5  CO255       0.0191
     23 ****        6.8287   -3.4867   11.4821 H       3  PIP333      0.1022
     24 ****        7.0293   -5.0774   12.2688 H       3  PIP333      0.0993
     25 ****        4.9489   -5.0482   10.9137 H       3  PIP333      0.1281
     26 ****        5.8585   -4.5941    9.4615 H       3  PIP333      0.0757
     27 S           5.6867  -10.4191   12.6287 S.O2    1  TOS111      2.6259
     28 O1          6.9754  -11.0067   12.3149 O.2     1  TOS111     -0.8650
     29 O2          4.7043  -11.1973   13.3573 O.2     1  TOS111     -0.8665
     30 C5          7.3671   -7.0675   14.2068 C.ar    4  NAPHTHALENE44   -0.1333
     31 C6          7.1982   -8.2841   13.5384 C.ar    4  NAPHTHALENE44   -0.0624
     32 C7          5.9331   -8.8737   13.4701 C.ar    4  NAPHTHALENE44   -0.7307
     33 C8          4.8371   -8.2265   14.0436 C.ar    4  NAPHTHALENE44    0.0316
     34 C9          4.9997   -7.0062   14.7125 C.ar    4  NAPHTHALENE44   -0.0542
     35 C10         6.2722   -6.4253   14.7947 C.ar    4  NAPHTHALENE44    0.0090
     36 H1          2.9110   -6.8069   15.2411 H       4  NAPHTHALENE44    0.1363
     37 C           5.4817   -7.5623   10.4970 C.2     2  APM222      0.2738
     38 CA          5.7251   -9.0279   10.2004 C.3     2  APM222      0.0422
     39 CB          5.3565   -9.3990    8.7341 C.3     2  APM222     -0.1223
     40 CG          4.0838   -8.6862    8.2434 C.ar    2  APM222     -0.0589
     41 CD1         2.8473   -9.3381    8.2174 C.ar    2  APM222     -0.0745
     42 CD2         4.1612   -7.3660    7.7919 C.ar    2  APM222     -0.0543
     43 CE1         1.6693   -8.6775    7.8291 C.ar    2  APM222     -0.1424
     44 CE2         3.0088   -6.6894    7.3952 C.ar    2  APM222     -0.1099
     45 CZ          1.7709   -7.3269    7.4619 C.ar    2  APM222     -0.0846
     46 CF          0.3240   -9.3890    7.8004 C.3     2  APM222      0.3427
     47 O           4.4637   -7.3418   11.1347 O.2     2  APM222     -0.3667
     48 N           4.9497   -9.8217   11.1456 N.3     2  APM222     -0.8290
     49 NG1        -0.6705   -8.9110    7.0868 N.3     2  APM222     -0.3291
     50 NG2         0.1338  -10.4923    8.4867 N.3     2  APM222     -0.3263
     51 N1          6.2978   -6.5425   10.0972 N.am    3  PIP333     -0.3383
     52 C2          7.5630   -6.7728    9.3929 C.3     3  PIP333     -0.0087
     53 C3          8.6929   -6.2150   10.2944 C.3     3  PIP333     -0.1368
     54 C4          8.4139   -4.7226   10.6213 C.3     3  PIP333     -0.1459
     55 C5          7.0294   -4.5558   11.2991 C.3     3  PIP333     -0.1826
     56 C6          5.9197   -5.1603   10.4048 C.3     3  PIP333     -0.0144
     57 C57        12.8523   -8.2422   10.0636 C.3     5  CO255      -0.2230
     58 ****       12.2030   -6.9644    8.4471 H       5  CO255       0.1240
     59 C59        11.6116   -8.9718    7.9550 C.3     5  CO255      -0.2227
     60 H2          3.2140   -4.6584   16.4218 H       4  NAPHTHALENE44    0.1410
     61 H3          5.4667   -3.6257   16.5706 H       4  NAPHTHALENE44    0.1420
     62 H4          7.4136   -4.7423   15.5373 H       4  NAPHTHALENE44    0.1409
     63 H5          8.3587   -6.6281   14.2624 H       4  NAPHTHALENE44    0.1419
     64 H6          8.0515   -8.7677   13.0758 H       4  NAPHTHALENE44    0.1500
     65 H8          3.8561   -8.6825   13.9640 H       4  NAPHTHALENE44    0.1419
     66 C          10.0251   -6.3840    9.6033 C.2     5  CO255       0.3010
     67 O          10.5634   -5.4347    9.0546 O.2     5  CO255      -0.3395
     68 O          10.5284   -7.6308    9.6496 O.3     5  CO255      -0.2504
     69 ****       13.8381   -8.4063    9.5998 H       5  CO255       0.0938
     70 ****       12.5441   -9.1689   10.5716 H       5  CO255       0.0881
     71 ****       12.9476   -7.4460   10.8181 H       5  CO255       0.0858
     72 ****       12.5486   -9.1651    7.4094 H       5  CO255       0.0951
     73 ****       10.8354   -8.6835    7.2287 H       5  CO255       0.0738
     74 ****       11.2941   -9.9006    8.4532 H       5  CO255       0.0867
@<TRIPOS>BOND
     1    27    32    1
     2    30    31   ar
     3    30    35   ar
     4    30    63    1
     5    35     4   ar
     6    35    34   ar
     7    34     1   ar
     8    38     5    1
     9    39     6    1
    10    39     7    1
    11    41     8    1
    12    42     9    1
    13    44    10    1
    14    45    11    1
    15    48    12    1
    16    49    13    1
    17    49    14    1
    18    50    15    1
    19    50    16    1
    20    52    17    1
    21    52    18    1
    22    53    66    1
    23    53    20    1
    24    54    21    1
    25    54    19    1
    26    55    23    1
    27    55    24    1
    28    56    25    1
    29    56    26    1
    30    34    33   ar
    31    27    29    2
    32    27    28    2
    33    33    32   ar
    34    33    65    1
    35    32    31   ar
    36    31    64    1
    37     1     2   ar
    38     1    36    1
    39    37    47    2
    40    37    38    1
    41    38    48    1
    42    38    39    1
    43    39    40    1
    44    40    42   ar
    45    40    41   ar
    46    41    43   ar
    47    43    46    1
    48    43    45   ar
    49    45    44   ar
    50    44    42   ar
    51    46    50    1
    52    46    49    1
    53    56    51    1
    54    51    52    1
    55    52    53    1
    56    53    54    1
    57    54    55    1
    58    55    56    1
    59    37    51   am
    60    48    27    1
    61    68    22    1
    62    22    57    1
    63    22    58    1
    64     2     3   ar
    65     2    60    1
    66     3     4   ar
    67     3    61    1
    68     4    62    1
    69    22    59    1
    70    66    67    2
    71    66    68    1
    72    57    69    1
    73    57    70    1
    74    57    71    1
    75    59    72    1
    76    59    73    1
    77    59    74    1
