@<TRIPOS>MOLECULE
CPD_22-b
 67 70 0 0 0
SMALL
GASTEIGER

@<TRIPOS>ATOM
      1 C1          3.8978   -6.3617   15.2928 C.ar    4  NAPHTHALENE44   -0.1017
      2 C2          4.0696   -5.1465   15.9626 C.ar    4  NAPHTHALENE44   -0.1292
      3 C3          5.3391   -4.5699   16.0424 C.ar    4  NAPHTHALENE44   -0.0974
      4 C4          6.4340   -5.2079   15.4541 C.ar    4  NAPHTHALENE44   -0.1353
      5 ****        6.7627   -9.3090   10.4045 H       2  APM222      0.1261
      6 ****        5.2571  -10.4947    8.6520 H       2  APM222      0.1155
      7 ****        6.1720   -9.1128    8.0405 H       2  APM222      0.1115
      8 ****        2.8049  -10.3942    8.5085 H       2  APM222      0.1334
      9 ****        5.1153   -6.8602    7.7431 H       2  APM222      0.1655
     10 ****        3.0652   -5.6581    7.0774 H       2  APM222      0.1651
     11 ****        0.8698   -6.7623    7.2339 H       2  APM222      0.1347
     12 ****        3.9521   -9.9197   10.9743 H       2  APM222      0.2275
     13 ****       -1.5685   -9.3629    7.0727 H       2  APM222      0.2727
     14 ****       -0.5150   -8.0497    6.5306 H       2  APM222      0.2962
     15 ****        0.9196  -10.8739    9.0818 H       2  APM222      0.2972
     16 ****       -0.7391  -10.9931    8.4780 H       2  APM222      0.2730
     17 ****        7.7102   -6.1777    8.5538 H       3  PIP333      0.1076
     18 ****        7.8303   -7.8331    9.1444 H       3  PIP333      0.1031
     19 ****        9.6894   -6.5890   10.2806 H       3  PIP333      0.1334
     20 ****        8.4067   -6.8775   11.4432 H       3  PIP333      0.0854
     21 C           9.2100   -3.9415   10.2747 C.2     5  CO55        0.3125
     22 O           9.0370   -2.7888   10.6380 O.2     5  CO55       -0.3605
     23 ****        6.9052   -3.4611   11.3849 H       3  PIP333      0.1373
     24 ****        7.0154   -4.9660   12.3219 H       3  PIP333      0.0991
     25 ****        4.9927   -5.0275   10.9090 H       3  PIP333      0.1317
     26 ****        5.9302   -4.5973    9.4666 H       3  PIP333      0.0814
     27 S           5.6605  -10.4219   12.6259 S.O2    1  TOS111      2.6240
     28 O1          6.9449  -11.0215   12.3173 O.2     1  TOS111     -0.8663
     29 O2          4.6670  -11.1906   13.3493 O.2     1  TOS111     -0.8650
     30 C5          7.3592   -7.0778   14.2007 C.ar    4  NAPHTHALENE44   -0.1316
     31 C6          7.1860   -8.3009   13.5446 C.ar    4  NAPHTHALENE44   -0.0656
     32 C7          5.9170   -8.8796   13.4686 C.ar    4  NAPHTHALENE44   -0.7311
     33 C8          4.8232   -8.2235   14.0365 C.ar    4  NAPHTHALENE44    0.0309
     34 C9          4.9921   -7.0047   14.7051 C.ar    4  NAPHTHALENE44   -0.0544
     35 C10         6.2673   -6.4284   14.7862 C.ar    4  NAPHTHALENE44    0.0076
     36 H1          2.9054   -6.7986   15.2367 H       4  NAPHTHALENE44    0.1366
     37 C           5.4830   -7.5559   10.4790 C.2     2  APM222      0.2712
     38 CA          5.7217   -9.0253   10.1943 C.3     2  APM222      0.0438
     39 CB          5.3620   -9.4009    8.7269 C.3     2  APM222     -0.1227
     40 CG          4.0840   -8.6930    8.2440 C.ar    2  APM222     -0.0552
     41 CD1         2.8462   -9.3485    8.2268 C.ar    2  APM222     -0.0755
     42 CD2         4.1587   -7.3688    7.7980 C.ar    2  APM222     -0.0551
     43 CE1         1.6772   -8.6793    7.8395 C.ar    2  APM222     -0.1481
     44 CE2         3.0014   -6.6877    7.4165 C.ar    2  APM222     -0.1056
     45 CZ          1.7625   -7.3302    7.4730 C.ar    2  APM222     -0.0856
     46 CF          0.3352   -9.3918    7.8100 C.3     2  APM222      0.3340
     47 O           4.4500   -7.3219   11.0871 O.2     2  APM222     -0.3705
     48 N           4.9337   -9.8114   11.1351 N.3     2  APM222     -0.8280
     49 NG1        -0.6469   -8.9006    7.0956 N.3     2  APM222     -0.3277
     50 NG2         0.1627  -10.4929    8.4972 N.3     2  APM222     -0.3250
     51 N1          6.3228   -6.5478   10.0985 N.am    3  PIP333     -0.3424
     52 C2          7.6170   -6.8047    9.4540 C.3     3  PIP333     -0.0430
     53 C3          8.6446   -6.3430   10.5106 C.3     3  PIP333     -0.0211
     54 N4          8.3657   -4.9227   10.7080 N.am    3  PIP333     -0.3414
     55 C5          7.0809   -4.5464   11.3076 C.3     3  PIP333     -0.0286
     56 C6          5.9689   -5.1582   10.4142 C.3     3  PIP333     -0.0362
     57 ****       10.3982   -4.1151    9.3467 C.3     5  CO55       -0.0281
     58 O58        10.3648   -5.2938    8.5213 O.3     5  CO55       -0.3698
     59 ****       11.3216   -4.0571    9.9442 H       5  CO55        0.1009
     60 H2          3.2177   -4.6528   16.4197 H       4  NAPHTHALENE44    0.1415
     61 H3          5.4736   -3.6260   16.5623 H       4  NAPHTHALENE44    0.1434
     62 H4          7.4145   -4.7464   15.5218 H       4  NAPHTHALENE44    0.1433
     63 H5          8.3516   -6.6393   14.2496 H       4  NAPHTHALENE44    0.1434
     64 H6          8.0389   -8.7985   13.0964 H       4  NAPHTHALENE44    0.1472
     65 H8          3.8394   -8.6727   13.9528 H       4  NAPHTHALENE44    0.1424
     66 ****       10.3921   -3.2521    8.6578 H       5  CO55        0.1036
     67 ****       11.1340   -5.3908    7.9674 H       5  CO55        0.2243
@<TRIPOS>BOND
     1    27    32    1
     2    30    31   ar
     3    30    35   ar
     4    30    63    1
     5    35     4   ar
     6    35    34   ar
     7    34     1   ar
     8    38     5    1
     9    39     6    1
    10    39     7    1
    11    41     8    1
    12    42     9    1
    13    44    10    1
    14    45    11    1
    15    48    12    1
    16    49    13    1
    17    49    14    1
    18    50    15    1
    19    50    16    1
    20    52    17    1
    21    52    18    1
    22    53    19    1
    23    53    20    1
    24    21    22    2
    25    54    21   am
    26    55    23    1
    27    55    24    1
    28    56    25    1
    29    56    26    1
    30    34    33   ar
    31    27    29    2
    32    27    28    2
    33    33    32   ar
    34    33    65    1
    35    32    31   ar
    36    31    64    1
    37     1     2   ar
    38     1    36    1
    39    37    47    2
    40    37    38    1
    41    38    48    1
    42    38    39    1
    43    39    40    1
    44    40    42   ar
    45    40    41   ar
    46    41    43   ar
    47    43    46    1
    48    43    45   ar
    49    45    44   ar
    50    44    42   ar
    51    46    50    1
    52    46    49    1
    53    56    51    1
    54    51    52    1
    55    52    53    1
    56    53    54    1
    57    54    55    1
    58    55    56    1
    59    37    51   am
    60    48    27    1
    61    21    57    1
    62    57    58    1
    63    57    59    1
    64     2     3   ar
    65     2    60    1
    66     3     4   ar
    67     3    61    1
    68     4    62    1
    69    57    66    1
    70    58    67    1
