@<TRIPOS>MOLECULE
CPD_31-b
 61 63 0 0 0
SMALL
GASTEIGER

@<TRIPOS>ATOM
      1 C1          3.9004   -6.3681   15.3029 C.ar    4  NAPHTHALENE44   -0.0999
      2 C2          4.0654   -5.1524   15.9713 C.ar    4  NAPHTHALENE44   -0.1311
      3 C3          5.3322   -4.5703   16.0569 C.ar    4  NAPHTHALENE44   -0.0989
      4 C4          6.4316   -5.2066   15.4723 C.ar    4  NAPHTHALENE44   -0.1353
      5 ****        6.7563   -9.3111   10.3338 H       2  APM222      0.1289
      6 ****        5.1382  -10.5488    8.7061 H       2  APM222      0.1156
      7 ****        6.1046   -9.2541    8.0144 H       2  APM222      0.1128
      8 ****        2.7552  -10.3980    8.4944 H       2  APM222      0.1333
      9 ****        5.0976   -6.8857    7.7407 H       2  APM222      0.1624
     10 ****        3.0671   -5.6784    7.0286 H       2  APM222      0.1654
     11 ****        0.8598   -6.7523    7.1964 H       2  APM222      0.1357
     12 ****        3.9573   -9.9684   11.0201 H       2  APM222      0.2298
     13 ****       -1.6025   -9.3670    7.0563 H       2  APM222      0.2726
     14 ****       -0.5490   -8.0604    6.5011 H       2  APM222      0.2961
     15 ****        0.8770  -10.8636    9.0829 H       2  APM222      0.2974
     16 ****       -0.7748  -10.9888    8.4673 H       2  APM222      0.2730
     17 N17         6.3276   -6.6245   10.1194 N.am    3  AMINO33    -0.3872
     18 C           6.0819   -5.2129   10.4414 C.3     5  NBUTYL55   -0.0196
     19 C           7.2327   -4.2834    9.9716 C.3     5  NBUTYL55   -0.1774
     20 C           6.9675   -2.8115   10.3916 C.3     5  NBUTYL55   -0.1549
     21 C           8.0996   -1.8752    9.9006 C.3     5  NBUTYL55   -0.2111
     22 ****        7.1465   -6.8578    9.5956 H       3  AMINO33     0.2298
     23 ****        5.1412   -4.8806    9.9691 H       5  NBUTYL55    0.0834
     24 ****        5.9979   -5.0744   11.5315 H       5  NBUTYL55    0.1059
     25 ****        7.3158   -4.3488    8.8747 H       5  NBUTYL55    0.0778
     26 ****        8.1827   -4.6248   10.4175 H       5  NBUTYL55    0.0915
     27 S           5.6925  -10.4195   12.6275 S.O2    1  TOS111      2.6309
     28 O1          6.9821  -10.9970   12.2998 O.2     1  TOS111     -0.8684
     29 O2          4.7251  -11.2061   13.3679 O.2     1  TOS111     -0.8678
     30 C5          7.3657   -7.0650   14.2083 C.ar    4  NAPHTHALENE44   -0.1300
     31 C6          7.1983   -8.2812   13.5406 C.ar    4  NAPHTHALENE44   -0.0619
     32 C7          5.9349   -8.8738   13.4709 C.ar    4  NAPHTHALENE44   -0.7328
     33 C8          4.8380   -8.2276   14.0476 C.ar    4  NAPHTHALENE44    0.0314
     34 C9          4.9991   -7.0088   14.7156 C.ar    4  NAPHTHALENE44   -0.0542
     35 C10         6.2699   -6.4233   14.7997 C.ar    4  NAPHTHALENE44    0.0099
     36 H1          2.9104   -6.8097   15.2452 H       4  NAPHTHALENE44    0.1358
     37 C           5.4573   -7.5891   10.5127 C.2     2  APM222      0.2756
     38 CA          5.6936   -9.0543   10.1876 C.3     2  APM222      0.0372
     39 CB          5.2972   -9.4580    8.7342 C.3     2  APM222     -0.1231
     40 CG          4.0469   -8.7110    8.2387 C.ar    2  APM222     -0.0558
     41 CD1         2.8027   -9.3528    8.2142 C.ar    2  APM222     -0.0789
     42 CD2         4.1377   -7.3894    7.7876 C.ar    2  APM222     -0.0554
     43 CE1         1.6425   -8.6752    7.8199 C.ar    2  APM222     -0.1457
     44 CE2         2.9906   -6.7016    7.3855 C.ar    2  APM222     -0.1049
     45 CZ          1.7435   -7.3306    7.4434 C.ar    2  APM222     -0.0848
     46 CF          0.2997   -9.3895    7.7952 C.3     2  APM222      0.3341
     47 O           4.4497   -7.3192   11.1465 O.2     2  APM222     -0.3609
     48 N           4.9413   -9.8432   11.1582 N.3     2  APM222     -0.8335
     49 NG1        -0.6807   -8.9050    7.0749 N.3     2  APM222     -0.3270
     50 NG2         0.1254  -10.4860    8.4896 N.3     2  APM222     -0.3250
     51 ****        6.9008   -2.7458   11.4909 H       5  NBUTYL55    0.0879
     52 ****        6.0089   -2.4725    9.9646 H       5  NBUTYL55    0.0800
     53 ****        7.8883   -0.8368   10.2014 H       5  NBUTYL55    0.0845
     54 ****        8.1778   -1.9156    8.8030 H       5  NBUTYL55    0.0740
     55 ****        9.0624   -2.1809   10.3386 H       5  NBUTYL55    0.0784
     56 H2          3.2102   -4.6599   16.4245 H       4  NAPHTHALENE44    0.1404
     57 H3          5.4619   -3.6259   16.5767 H       4  NAPHTHALENE44    0.1416
     58 H4          7.4106   -4.7431   15.5486 H       4  NAPHTHALENE44    0.1407
     59 H5          8.3561   -6.6235   14.2640 H       4  NAPHTHALENE44    0.1420
     60 H6          8.0524   -8.7643   13.0781 H       4  NAPHTHALENE44    0.1485
     61 H8          3.8585   -8.6872   13.9687 H       4  NAPHTHALENE44    0.1410
@<TRIPOS>BOND
     1    27    32    1
     2    30    31   ar
     3    30    35   ar
     4    30    59    1
     5    35     4   ar
     6    35    34   ar
     7    34     1   ar
     8    38     5    1
     9    39     6    1
    10    39     7    1
    11    41     8    1
    12    42     9    1
    13    44    10    1
    14    45    11    1
    15    48    12    1
    16    49    13    1
    17    49    14    1
    18    50    15    1
    19    50    16    1
    20    18    19    1
    21    19    20    1
    22    37    17   am
    23    20    21    1
    24    17    18    1
    25    17    22    1
    26    18    23    1
    27    18    24    1
    28    19    25    1
    29    19    26    1
    30    34    33   ar
    31    27    29    2
    32    27    28    2
    33    33    32   ar
    34    33    61    1
    35    32    31   ar
    36    31    60    1
    37     1     2   ar
    38     1    36    1
    39    37    47    2
    40    37    38    1
    41    38    48    1
    42    38    39    1
    43    39    40    1
    44    40    42   ar
    45    40    41   ar
    46    41    43   ar
    47    43    46    1
    48    43    45   ar
    49    45    44   ar
    50    44    42   ar
    51    46    50    1
    52    46    49    1
    53    20    51    1
    54    20    52    1
    55    21    53    1
    56    21    54    1
    57    21    55    1
    58    48    27    1
    59     2     3   ar
    60     2    56    1
    61     3     4   ar
    62     3    57    1
    63     4    58    1
