@<TRIPOS>MOLECULE
Steroids.6
 55 58 0 0 0
SMALL
GASTEIGER

@<TRIPOS>ATOM
      1 C          -3.0231   -0.7525   -1.0584 C.3     1  LIG1       -0.0365
      2 C          -1.8055   -0.5744   -0.1211 C.3     1  LIG1       -0.0048
      3 C          -0.8236    1.2444   -1.7030 C.3     1  LIG1        0.0596
      4 C           0.3977    1.6513   -2.5610 C.3     1  LIG1       -0.0202
      5 C           1.6805    1.6373   -1.7038 C.3     1  LIG1       -0.0170
      6 C           1.8644    0.2021   -1.1959 C.3     1  LIG1       -0.0316
      7 C           3.2889    0.2123   -0.6243 C.3     1  LIG1       -0.0487
      8 C           4.0551    1.1328   -1.6022 C.3     1  LIG1       -0.0426
      9 C           2.9902    1.8199   -2.4960 C.3     1  LIG1        0.0255
     10 C           1.6343    2.6760   -0.5562 C.3     1  LIG1       -0.0585
     11 C          -2.1444    0.4422    0.9912 C.3     1  LIG1       -0.0554
     12 C          -4.2052   -1.3896   -0.3055 C.3     1  LIG1        0.0106
     13 C           3.3051    3.2596   -2.8060 C.2     1  LIG1        0.1620
     14 C           2.3446    3.9935   -3.6979 C.3     1  LIG1        0.1025
     15 C          -3.7526   -2.6443    0.3866 C.2     1  LIG1        0.1560
     16 C          -2.4900   -2.7941    0.8003 C.2     1  LIG1       -0.0194
     17 C          -1.5370   -1.8762    0.6026 C.2     1  LIG1       -0.0599
     18 C          -0.1525   -2.1064    1.1476 C.3     1  LIG1       -0.0305
     19 C           0.9489   -1.6819    0.1625 C.3     1  LIG1       -0.0458
     20 C           0.7340   -0.2114   -0.2356 C.3     1  LIG1       -0.0314
     21 C          -0.6064   -0.1266   -1.0032 C.3     1  LIG1       -0.0027
     22 O          -1.1126    2.3243   -0.7500 O.3     1  LIG1       -0.3914
     23 O           4.2897    3.8179   -2.3492 O.2     1  LIG1       -0.2946
     24 O           3.0135    5.1364   -4.3382 O.3     1  LIG1       -0.3875
     25 O          -4.5583   -3.5391    0.5838 O.2     1  LIG1       -0.2926
     26 H          -3.3362    0.2223   -1.4597 H       1  LIG1        0.0277
     27 H          -2.7396   -1.4139   -1.8902 H       1  LIG1        0.0277
     28 H          -1.6870    1.1574   -2.3771 H       1  LIG1        0.0596
     29 H           0.2295    2.6528   -2.9813 H       1  LIG1        0.0295
     30 H           0.5097    0.9275   -3.3817 H       1  LIG1        0.0295
     31 H           1.8528   -0.4762   -2.0628 H       1  LIG1        0.0309
     32 H           3.7189   -0.7990   -0.5852 H       1  LIG1        0.0268
     33 H           3.2800    0.6618    0.3793 H       1  LIG1        0.0268
     34 H           4.7456    0.5492   -2.2286 H       1  LIG1        0.0272
     35 H           4.6188    1.8718   -1.0139 H       1  LIG1        0.0272
     36 H           2.9087    1.2472   -3.4317 H       1  LIG1        0.0383
     37 H           1.3330    3.6504   -0.9675 H       1  LIG1        0.0235
     38 H           2.6313    2.7717   -0.1023 H       1  LIG1        0.0235
     39 H           0.9217    2.3765    0.2232 H       1  LIG1        0.0235
     40 H          -1.2279    0.7206    1.5312 H       1  LIG1        0.0238
     41 H          -2.8523   -0.0156    1.6977 H       1  LIG1        0.0238
     42 H          -2.6126    1.3391    0.5638 H       1  LIG1        0.0238
     43 H          -5.0048   -1.6202   -1.0246 H       1  LIG1        0.0345
     44 H          -4.5841   -0.6781    0.4424 H       1  LIG1        0.0345
     45 H           1.5031    4.3679   -3.0969 H       1  LIG1        0.0636
     46 H           1.9624    3.3143   -4.4743 H       1  LIG1        0.0636
     47 H          -2.2228   -3.7122    1.3227 H       1  LIG1        0.0651
     48 H          -0.0150   -3.1727    1.3794 H       1  LIG1        0.0310
     49 H          -0.0375   -1.5215    2.0714 H       1  LIG1        0.0310
     50 H           0.9041   -2.3159   -0.7361 H       1  LIG1        0.0271
     51 H           1.9306   -1.7981    0.6442 H       1  LIG1        0.0271
     52 H           0.7240    0.4245    0.6601 H       1  LIG1        0.0307
     53 H          -0.5279   -0.8626   -1.8177 H       1  LIG1        0.0336
     54 H          -1.2702    3.1762   -1.1392 H       1  LIG1        0.2097
     55 H           3.7541    4.9133   -4.8893 H       1  LIG1        0.2099
@<TRIPOS>BOND
     1     1    12    1
     2     2    11    1
     3    21     3    1
     4     3     4    1
     5     4     5    1
     6     5     6    1
     7     6     7    1
     8     7     8    1
     9     8     9    1
    10     5    10    1
    11    12    15    1
    12     9    13    1
    13    13    14    1
    14    15    16    1
    15    16    17    2
    16    17    18    1
    17    18    19    1
    18    19    20    1
    19    20    21    1
    20    21     2    1
    21     3    22    1
    22    13    23    2
    23    14    24    1
    24    15    25    2
    25     1     2    1
    26    17     2    1
    27    20     6    1
    28     5     9    1
    29     1    26    1
    30     1    27    1
    31     3    28    1
    32     4    29    1
    33     4    30    1
    34     6    31    1
    35     7    32    1
    36     7    33    1
    37     8    34    1
    38     8    35    1
    39     9    36    1
    40    10    37    1
    41    10    38    1
    42    10    39    1
    43    11    40    1
    44    11    41    1
    45    11    42    1
    46    12    43    1
    47    12    44    1
    48    14    45    1
    49    14    46    1
    50    16    47    1
    51    18    48    1
    52    18    49    1
    53    19    50    1
    54    19    51    1
    55    20    52    1
    56    21    53    1
    57    22    54    1
    58    24    55    1
