@<TRIPOS>MOLECULE
Steroids.15
 42 45 0 0 0
SMALL
GASTEIGER

@<TRIPOS>ATOM
      1 C          -2.9990   -0.7589   -0.9527 C.ar    1  LIG1       -0.0556
      2 C          -1.6877   -1.0078   -0.5348 C.ar    1  LIG1       -0.0406
      3 C          -0.8408    1.0985   -1.7481 C.3     1  LIG1       -0.0450
      4 C           0.3470    1.6952   -2.5415 C.3     1  LIG1       -0.0400
      5 C           1.6099    1.6687   -1.6586 C.3     1  LIG1        0.0292
      6 C           1.8942    0.2147   -1.2483 C.3     1  LIG1       -0.0251
      7 C           3.3076    0.2624   -0.6351 C.3     1  LIG1       -0.0423
      8 C           4.0646    1.2443   -1.5619 C.3     1  LIG1        0.0066
      9 C           2.9352    1.8890   -2.3149 C.2     1  LIG1        0.1394
     10 C           1.4697    2.6274   -0.4541 C.3     1  LIG1       -0.0525
     11 C          -4.0758   -1.4006   -0.3374 C.ar    1  LIG1       -0.0316
     12 C          -3.8468   -2.3119    0.6966 C.ar    1  LIG1        0.0728
     13 C          -2.5407   -2.5527    1.1277 C.ar    1  LIG1       -0.0284
     14 C          -1.4648   -1.8883    0.5324 C.ar    1  LIG1       -0.0414
     15 C          -0.0658   -2.1588    1.0895 C.3     1  LIG1       -0.0270
     16 C           1.0364   -1.7602    0.0908 C.3     1  LIG1       -0.0453
     17 C           0.7509   -0.3221   -0.3711 C.3     1  LIG1       -0.0301
     18 C          -0.5151   -0.3352   -1.2588 C.3     1  LIG1       -0.0124
     19 O           3.0792    2.4832   -3.3704 O.2     1  LIG1       -0.2968
     20 O          -4.8415   -2.9363    1.2569 O.3     1  LIG1       -0.3598
     21 H          -1.0720    1.7353   -0.8825 H       1  LIG1        0.0271
     22 H          -1.7083    1.0772   -2.4218 H       1  LIG1        0.0271
     23 H           0.1207    2.7295   -2.8411 H       1  LIG1        0.0274
     24 H           0.5190    1.0827   -3.4394 H       1  LIG1        0.0274
     25 H           1.9471   -0.4050   -2.1571 H       1  LIG1        0.0313
     26 H           3.7760   -0.7325   -0.6245 H       1  LIG1        0.0272
     27 H           3.2581    0.6694    0.3853 H       1  LIG1        0.0272
     28 H           4.7233    0.6955   -2.2507 H       1  LIG1        0.0341
     29 H           4.6400    1.9765   -0.9763 H       1  LIG1        0.0341
     30 H           0.6113    2.3419    0.1692 H       1  LIG1        0.0239
     31 H           1.3149    3.6491   -0.8314 H       1  LIG1        0.0239
     32 H           2.3826    2.6056    0.1585 H       1  LIG1        0.0239
     33 H           0.0376   -3.2260    1.3345 H       1  LIG1        0.0313
     34 H           0.0606   -1.5640    2.0056 H       1  LIG1        0.0313
     35 H           1.0299   -2.4382   -0.7754 H       1  LIG1        0.0271
     36 H           2.0142   -1.8102    0.5914 H       1  LIG1        0.0271
     37 H           0.6060    0.3189    0.5105 H       1  LIG1        0.0309
     38 H          -0.2977   -0.9430   -2.1490 H       1  LIG1        0.0351
     39 H          -5.7060   -2.7411    0.9136 H       1  LIG1        0.2173
     40 H          -3.1938   -0.0688   -1.7635 H       1  LIG1        0.0621
     41 H          -5.0873   -1.1929   -0.6652 H       1  LIG1        0.0643
     42 H          -2.3608   -3.2582    1.9303 H       1  LIG1        0.0646
@<TRIPOS>BOND
     1     2     1   ar
     2     2    14   ar
     3    18     3    1
     4     3     4    1
     5     5     6    1
     6     6    17    1
     7     6     7    1
     8     7     8    1
     9     8     9    1
    10     5    10    1
    11     1    11   ar
    12    11    12   ar
    13    13    12   ar
    14    14    13   ar
    15    14    15    1
    16    15    16    1
    17    17    18    1
    18    18     2    1
    19     9    19    2
    20    12    20    1
    21    17    16    1
    22     5     4    1
    23     5     9    1
    24     3    21    1
    25     3    22    1
    26     4    23    1
    27     4    24    1
    28     6    25    1
    29     7    26    1
    30     7    27    1
    31     8    28    1
    32     8    29    1
    33    10    30    1
    34    10    31    1
    35    10    32    1
    36    15    33    1
    37    15    34    1
    38    16    35    1
    39    16    36    1
    40    17    37    1
    41    18    38    1
    42    20    39    1
    43     1    40    1
    44    11    41    1
    45    13    42    1
