@<TRIPOS>MOLECULE
Steroids.21
 49 52 0 0 0
SMALL
GASTEIGER

@<TRIPOS>ATOM
      1 O          -4.5647   -3.5125    0.6269 O.2     1  LIG1       -0.2882
      2 O           3.2669    3.2711   -2.6833 O.3     1  LIG1       -0.3912
      3 C          -3.0171   -0.7750   -1.0819 C.3     1  LIG1       -0.0214
      4 C          -4.1997   -1.3830   -0.3058 C.3     1  LIG1       -0.0364
      5 C          -3.7547   -2.6268    0.4103 C.2     1  LIG1        0.1750
      6 C          -2.4926   -2.7746    0.8254 C.2     1  LIG1       -0.0154
      7 C          -1.5337   -1.8681    0.6043 C.2     1  LIG1       -0.0594
      8 C          -0.1502   -2.0979    1.1539 C.3     1  LIG1       -0.0305
      9 C           0.9536   -1.7094    0.1559 C.3     1  LIG1       -0.0459
     10 C           0.7366   -0.2489   -0.2724 C.3     1  LIG1       -0.0337
     11 C          -0.5930   -0.1836   -1.0598 C.3     1  LIG1       -0.0285
     12 C          -1.7902   -0.5857   -0.1589 C.3     1  LIG1       -0.0040
     13 C          -0.8133    1.1996   -1.7280 C.3     1  LIG1       -0.0485
     14 C           0.3986    1.6278   -2.5872 C.3     1  LIG1       -0.0447
     15 C           1.6618    1.6180   -1.7068 C.3     1  LIG1       -0.0030
     16 C           1.8744    0.1819   -1.2132 C.3     1  LIG1       -0.0300
     17 C           3.2867    0.2267   -0.6104 C.3     1  LIG1       -0.0470
     18 C           4.0491    1.1791   -1.5609 C.3     1  LIG1       -0.0260
     19 C           2.9825    1.8452   -2.4633 C.3     1  LIG1        0.0608
     20 C           1.5395    2.6389   -0.5500 C.3     1  LIG1       -0.0569
     21 C          -2.0903    0.5059    0.8910 C.3     1  LIG1       -0.0552
     22 H           4.0885    3.4528   -3.1237 H       1  LIG1        0.2098
     23 H          -3.3261    0.1921   -1.5040 H       1  LIG1        0.0316
     24 H          -2.7469   -1.4587   -1.9002 H       1  LIG1        0.0316
     25 H          -5.0091   -1.6196   -1.0123 H       1  LIG1        0.0610
     26 H          -2.2308   -3.6815    1.3688 H       1  LIG1        0.0655
     27 H          -0.0223   -3.1589    1.4149 H       1  LIG1        0.0310
     28 H          -0.0282   -1.4899    2.0620 H       1  LIG1        0.0310
     29 H           0.9061   -2.3659   -0.7259 H       1  LIG1        0.0271
     30 H           1.9350   -1.8158    0.6400 H       1  LIG1        0.0271
     31 H           0.7097    0.3995    0.6142 H       1  LIG1        0.0306
     32 H          -0.5204   -0.9237   -1.8713 H       1  LIG1        0.0311
     33 H          -0.9868    1.9637   -0.9576 H       1  LIG1        0.0268
     34 H          -1.6947    1.1485   -2.3830 H       1  LIG1        0.0268
     35 H           0.2319    2.6365   -2.9917 H       1  LIG1        0.0271
     36 H           0.5244    0.9159   -3.4161 H       1  LIG1        0.0271
     37 H           1.8927   -0.4905   -2.0839 H       1  LIG1        0.0309
     38 H           3.7441   -0.7723   -0.5701 H       1  LIG1        0.0268
     39 H           3.2429    0.6655    0.3973 H       1  LIG1        0.0268
     40 H           4.7649    0.6207   -2.1814 H       1  LIG1        0.0290
     41 H           4.5785    1.9384   -0.9662 H       1  LIG1        0.0290
     42 H           2.9427    1.3107   -3.4238 H       1  LIG1        0.0598
     43 H           1.3720    3.6392   -0.9748 H       1  LIG1        0.0235
     44 H           2.4665    2.6507    0.0410 H       1  LIG1        0.0235
     45 H           0.6978    2.3840    0.1086 H       1  LIG1        0.0235
     46 H          -2.4470    1.4193    0.3940 H       1  LIG1        0.0238
     47 H          -1.1796    0.7321    1.4639 H       1  LIG1        0.0238
     48 H          -2.8683    0.1460    1.5805 H       1  LIG1        0.0238
     49 H          -4.5638   -0.6520    0.4304 H       1  LIG1        0.0000
@<TRIPOS>BOND
     1     5     1    2
     2     2    19    1
     3     3     4    1
     4     4     5    1
     5     5     6    1
     6     7     6    2
     7     8     7    1
     8     9     8    1
     9    10     9    1
    10    11    10    1
    11    11    12    1
    12    12     3    1
    13    13    11    1
    14    14    13    1
    15    15    14    1
    16    10    16    1
    17    16    17    1
    18    17    18    1
    19    19    15    1
    20    15    20    1
    21    12    21    1
    22     7    12    1
    23    15    16    1
    24    18    19    1
    25     2    22    1
    26     3    23    1
    27     3    24    1
    28     4    25    1
    29     6    26    1
    30     8    27    1
    31     8    28    1
    32     9    29    1
    33     9    30    1
    34    10    31    1
    35    11    32    1
    36    13    33    1
    37    13    34    1
    38    14    35    1
    39    14    36    1
    40    16    37    1
    41    17    38    1
    42    17    39    1
    43    18    40    1
    44    18    41    1
    45    19    42    1
    46    20    43    1
    47    20    44    1
    48    20    45    1
    49    21    46    1
    50    21    47    1
    51    21    48    1
    52     4    49    1
