#	Name:			mol15
#	Creating user name:	becker
#	Creation time:		Wed Apr 19 13:40:35 2006

#	Modifying user name:	becker
#	Modification time:	Wed Apr 19 13:40:35 2006

@<TRIPOS>MOLECULE
mol15
   40    43     1     0     0
SMALL
NO_CHARGES


@<TRIPOS>ATOM
      1 C           0.739000   -3.595000   -0.576000 C.ar      1 <1>         0.000000 
      2 H           0.342000   -4.591000   -0.749000 H         1 <1>         0.000000 
      3 C           2.118000   -3.398000   -0.492000 C.ar      1 <1>         0.000000 
      4 C           2.621000   -2.112000   -0.282000 C.ar      1 <1>         0.000000 
      5 H           3.696000   -1.971000   -0.235000 H         1 <1>         0.000000 
      6 C           1.761000   -1.016000   -0.139000 C.ar      1 <1>         0.000000 
      7 C           0.373000   -1.221000   -0.191000 C.ar      1 <1>         0.000000 
      8 C          -0.125000   -2.507000   -0.439000 C.ar      1 <1>         0.000000 
      9 H          -1.194000   -2.671000   -0.531000 H         1 <1>         0.000000 
     10 N          -0.500000   -0.202000    0.002000 N.pl3     1 <1>         0.000000 
     11 C          -1.585000   -0.264000    0.714000 C.ar      1 <1>         0.000000 
     12 H          -1.961000   -1.126000    1.264000 H         1 <1>         0.000000 
     13 N          -2.166000    0.848000    0.691000 N.ar      1 <1>         0.000000 
     14 C          -1.419000    1.779000   -0.108000 C.ar      1 <1>         0.000000 
     15 C          -0.387000    1.006000   -0.503000 C.ar      1 <1>         0.000000 
     16 C           0.771000    1.378000   -1.382000 C.3       1 <1>         0.000000 
     17 H           0.587000    2.317000   -1.920000 H         1 <1>         0.000000 
     18 H           0.934000    0.603000   -2.147000 H         1 <1>         0.000000 
     19 N           1.914000    1.474000   -0.484000 N.am      1 <1>         0.000000 
     20 C           2.399000    0.341000    0.085000 C.2       1 <1>         0.000000 
     21 O           3.389000    0.368000    0.800000 O.2       1 <1>         0.000000 
     22 C           2.567000    2.747000   -0.173000 C.3       1 <1>         0.000000 
     23 H           2.672000    2.868000    0.916000 H         1 <1>         0.000000 
     24 H           1.994000    3.608000   -0.548000 H         1 <1>         0.000000 
     25 H           3.567000    2.770000   -0.633000 H         1 <1>         0.000000 
     26 C          -1.781000    3.185000   -0.348000 C.2       1 <1>         0.000000 
     27 O          -2.857000    3.580000    0.072000 O.2       1 <1>         0.000000 
     28 O          -0.928000    3.986000   -1.003000 O.3       1 <1>         0.000000 
     29 C          -1.369000    5.348000   -1.148000 C.3       1 <1>         0.000000 
     30 H          -1.529000    5.810000   -0.159000 H         1 <1>         0.000000 
     31 H          -2.304000    5.403000   -1.728000 H         1 <1>         0.000000 
     32 C          -0.268000    6.089000   -1.944000 C.3       1 <1>         0.000000 
     33 H          -0.042000    5.775000   -2.975000 H         1 <1>         0.000000 
     34 C          -0.011000    7.571000   -1.592000 C.3       1 <1>         0.000000 
     35 H          -0.648000    8.035000   -0.824000 H         1 <1>         0.000000 
     36 H           0.332000    8.220000   -2.413000 H         1 <1>         0.000000 
     37 C           0.975000    6.481000   -1.115000 C.3       1 <1>         0.000000 
     38 H           1.951000    6.452000   -1.625000 H         1 <1>         0.000000 
     39 H           0.971000    6.259000   -0.036000 H         1 <1>         0.000000 
     40 Cl          3.212000   -4.757000   -0.650000 Cl        1 <1>         0.000000 
@<TRIPOS>BOND
     1    2    1 1    
     2    1    3 ar   
     3    3    4 ar   
     4    4    5 1    
     5    4    6 ar   
     6    6    7 ar   
     7    7    8 ar   
     8    8    9 1    
     9    8    1 ar   
    10    7   10 1    
    11   10   11 ar   
    12   11   12 1    
    13   11   13 ar   
    14   13   14 ar   
    15   14   15 ar   
    16   15   10 ar   
    17   15   16 1    
    18   16   17 1    
    19   16   18 1    
    20   16   19 1    
    21   19   20 am   
    22   20    6 1    
    23   20   21 2    
    24   19   22 1    
    25   22   23 1    
    26   22   24 1    
    27   22   25 1    
    28   14   26 1    
    29   26   27 2    
    30   26   28 1    
    31   28   29 1    
    32   29   30 1    
    33   29   31 1    
    34   29   32 1    
    35   32   33 1    
    36   32   34 1    
    37   34   35 1    
    38   34   36 1    
    39   34   37 1    
    40   37   38 1    
    41   37   39 1    
    42   37   32 1    
    43    3   40 1    
@<TRIPOS>SUBSTRUCTURE
     1 ****        2 TEMP              0 ****  ****    0 ROOT 
