#	Name:			ro14_5974
#	Creating user name:	becker
#	Creation time:		Wed Apr 19 13:40:35 2006

#	Modifying user name:	becker
#	Modification time:	Wed Apr 19 13:40:35 2006

@<TRIPOS>MOLECULE
ro14_5974
   40    43     1     0     0
SMALL
NO_CHARGES


@<TRIPOS>ATOM
      1 C           3.243000   -2.137000    1.554000 C.ar      1 <1>         0.000000 
      2 H           3.668000   -2.465000    2.498000 H         1 <1>         0.000000 
      3 C           3.720000   -2.658000    0.351000 C.ar      1 <1>         0.000000 
      4 H           4.501000   -3.411000    0.354000 H         1 <1>         0.000000 
      5 C           3.188000   -2.199000   -0.856000 C.ar      1 <1>         0.000000 
      6 H           3.587000   -2.598000   -1.784000 H         1 <1>         0.000000 
      7 C           2.167000   -1.239000   -0.881000 C.ar      1 <1>         0.000000 
      8 C           1.629000   -0.781000    0.330000 C.ar      1 <1>         0.000000 
      9 C           2.214000   -1.192000    1.535000 C.ar      1 <1>         0.000000 
     10 H           1.873000   -0.776000    2.477000 H         1 <1>         0.000000 
     11 N           0.551000    0.040000    0.384000 N.pl3     1 <1>         0.000000 
     12 C          -0.428000   -0.120000    1.222000 C.ar      1 <1>         0.000000 
     13 H          -0.551000   -0.921000    1.951000 H         1 <1>         0.000000 
     14 N          -1.253000    0.810000    1.084000 N.ar      1 <1>         0.000000 
     15 C          -0.808000    1.713000    0.062000 C.ar      1 <1>         0.000000 
     16 C           0.337000    1.115000   -0.347000 C.ar      1 <1>         0.000000 
     17 C           1.295000    1.526000   -1.444000 C.3       1 <1>         0.000000 
     18 H           2.302000    1.703000   -1.034000 H         1 <1>         0.000000 
     19 N           1.366000    0.517000   -2.495000 N.am      1 <1>         0.000000 
     20 C           1.714000   -0.766000   -2.246000 C.2       1 <1>         0.000000 
     21 O           1.713000   -1.598000   -3.140000 O.2       1 <1>         0.000000 
     22 C           1.144000    0.940000   -3.872000 C.3       1 <1>         0.000000 
     23 H           1.822000    0.473000   -4.606000 H         1 <1>         0.000000 
     24 H           0.096000    0.760000   -4.158000 H         1 <1>         0.000000 
     25 C           1.452000    2.443000   -3.708000 C.3       1 <1>         0.000000 
     26 H           2.542000    2.605000   -3.675000 H         1 <1>         0.000000 
     27 H           1.018000    3.060000   -4.512000 H         1 <1>         0.000000 
     28 C           0.851000    2.730000   -2.317000 C.3       1 <1>         0.000000 
     29 H           1.164000    3.706000   -1.913000 H         1 <1>         0.000000 
     30 H          -0.239000    2.713000   -2.468000 H         1 <1>         0.000000 
     31 C          -1.567000    2.930000   -0.271000 C.2       1 <1>         0.000000 
     32 O          -2.786000    2.859000   -0.244000 O.2       1 <1>         0.000000 
     33 O          -0.916000    4.071000   -0.545000 O.3       1 <1>         0.000000 
     34 C          -1.752000    5.183000   -0.923000 C.3       1 <1>         0.000000 
     35 H          -1.089000    6.062000   -0.950000 H         1 <1>         0.000000 
     36 H          -2.534000    5.380000   -0.171000 H         1 <1>         0.000000 
     37 C          -2.362000    5.005000   -2.338000 C.3       1 <1>         0.000000 
     38 H          -2.932000    5.906000   -2.617000 H         1 <1>         0.000000 
     39 H          -3.041000    4.141000   -2.381000 H         1 <1>         0.000000 
     40 H          -1.559000    4.858000   -3.076000 H         1 <1>         0.000000 
@<TRIPOS>BOND
     1    2    1 1    
     2    1    3 ar   
     3    3    4 1    
     4    3    5 ar   
     5    5    6 1    
     6    5    7 ar   
     7    7    8 ar   
     8    8    9 ar   
     9    9   10 1    
    10    9    1 ar   
    11    8   11 1    
    12   11   12 ar   
    13   12   13 1    
    14   12   14 ar   
    15   14   15 ar   
    16   15   16 ar   
    17   16   11 ar   
    18   16   17 1    
    19   17   18 1    
    20   17   19 1    
    21   19   20 am   
    22   20    7 1    
    23   20   21 2    
    24   19   22 1    
    25   22   23 1    
    26   22   24 1    
    27   22   25 1    
    28   25   26 1    
    29   25   27 1    
    30   25   28 1    
    31   28   29 1    
    32   28   30 1    
    33   28   17 1    
    34   15   31 1    
    35   31   32 2    
    36   31   33 1    
    37   33   34 1    
    38   34   35 1    
    39   34   36 1    
    40   34   37 1    
    41   37   38 1    
    42   37   39 1    
    43   37   40 1    
@<TRIPOS>SUBSTRUCTURE
     1 ****        2 TEMP              0 ****  ****    0 ROOT 
