#	Name:			ro16_6028
#	Creating user name:	becker
#	Creation time:		Wed Apr 19 13:40:35 2006

#	Modifying user name:	becker
#	Modification time:	Wed Apr 19 13:40:35 2006

@<TRIPOS>MOLECULE
ro16_6028
   46    49     1     0     0
SMALL
NO_CHARGES


@<TRIPOS>ATOM
      1 C           1.357000   -3.624000   -0.133000 C.ar      1 <1>         0.000000 
      2 H           1.065000   -4.626000    0.166000 H         1 <1>         0.000000 
      3 C           2.577000   -3.409000   -0.773000 C.ar      1 <1>         0.000000 
      4 H           3.242000   -4.246000   -0.960000 H         1 <1>         0.000000 
      5 C           2.937000   -2.120000   -1.176000 C.ar      1 <1>         0.000000 
      6 C           2.114000   -1.022000   -0.882000 C.ar      1 <1>         0.000000 
      7 C           0.899000   -1.235000   -0.213000 C.ar      1 <1>         0.000000 
      8 C           0.512000   -2.541000    0.116000 C.ar      1 <1>         0.000000 
      9 H          -0.456000   -2.728000    0.569000 H         1 <1>         0.000000 
     10 N           0.082000   -0.211000    0.138000 N.pl3     1 <1>         0.000000 
     11 C          -0.521000   -0.123000    1.285000 C.ar      1 <1>         0.000000 
     12 H          -0.453000   -0.816000    2.123000 H         1 <1>         0.000000 
     13 N          -1.223000    0.912000    1.311000 N.ar      1 <1>         0.000000 
     14 C          -1.099000    1.620000    0.068000 C.ar      1 <1>         0.000000 
     15 C          -0.246000    0.821000   -0.613000 C.ar      1 <1>         0.000000 
     16 C           0.315000    0.961000   -2.010000 C.3       1 <1>         0.000000 
     17 H           0.157000    0.036000   -2.589000 H         1 <1>         0.000000 
     18 N           1.736000    1.234000   -1.901000 N.am      1 <1>         0.000000 
     19 C           2.578000    0.358000   -1.306000 C.2       1 <1>         0.000000 
     20 O           3.751000    0.644000   -1.122000 O.2       1 <1>         0.000000 
     21 C           2.246000    2.448000   -2.518000 C.3       1 <1>         0.000000 
     22 H           2.222000    3.279000   -1.796000 H         1 <1>         0.000000 
     23 H           3.254000    2.351000   -2.955000 H         1 <1>         0.000000 
     24 C           1.165000    2.596000   -3.612000 C.3       1 <1>         0.000000 
     25 H           1.120000    3.614000   -4.034000 H         1 <1>         0.000000 
     26 H           1.360000    1.879000   -4.428000 H         1 <1>         0.000000 
     27 C          -0.124000    2.178000   -2.868000 C.3       1 <1>         0.000000 
     28 H          -0.383000    3.037000   -2.244000 H         1 <1>         0.000000 
     29 H          -0.970000    1.959000   -3.539000 H         1 <1>         0.000000 
     30 C          -1.810000    2.881000   -0.188000 C.2       1 <1>         0.000000 
     31 O          -3.012000    2.808000   -0.382000 O.2       1 <1>         0.000000 
     32 O          -1.121000    4.033000   -0.173000 O.3       1 <1>         0.000000 
     33 C          -1.854000    5.263000   -0.395000 C.3       1 <1>         0.000000 
     34 C          -0.752000    6.358000   -0.314000 C.3       1 <1>         0.000000 
     35 H          -0.261000    6.333000    0.671000 H         1 <1>         0.000000 
     36 H           0.017000    6.182000   -1.083000 H         1 <1>         0.000000 
     37 H          -1.173000    7.364000   -0.467000 H         1 <1>         0.000000 
     38 C          -2.900000    5.533000    0.726000 C.3       1 <1>         0.000000 
     39 H          -3.291000    6.558000    0.644000 H         1 <1>         0.000000 
     40 H          -2.426000    5.417000    1.713000 H         1 <1>         0.000000 
     41 H          -3.757000    4.847000    0.672000 H         1 <1>         0.000000 
     42 C          -2.511000    5.337000   -1.806000 C.3       1 <1>         0.000000 
     43 H          -2.919000    6.344000   -1.980000 H         1 <1>         0.000000 
     44 H          -3.337000    4.622000   -1.924000 H         1 <1>         0.000000 
     45 H          -1.762000    5.129000   -2.585000 H         1 <1>         0.000000 
     46 Br          4.514000   -1.860000   -2.108000 Br        1 <1>         0.000000 
@<TRIPOS>BOND
     1    2    1 1    
     2    1    3 ar   
     3    3    4 1    
     4    3    5 ar   
     5    5    6 ar   
     6    6    7 ar   
     7    7    8 ar   
     8    8    9 1    
     9    8    1 ar   
    10    7   10 1    
    11   10   11 ar   
    12   11   12 1    
    13   11   13 ar   
    14   13   14 ar   
    15   14   15 ar   
    16   15   10 ar   
    17   15   16 1    
    18   16   17 1    
    19   16   18 1    
    20   18   19 am   
    21   19    6 1    
    22   19   20 2    
    23   18   21 1    
    24   21   22 1    
    25   21   23 1    
    26   21   24 1    
    27   24   25 1    
    28   24   26 1    
    29   24   27 1    
    30   27   28 1    
    31   27   29 1    
    32   27   16 1    
    33   14   30 1    
    34   30   31 2    
    35   30   32 1    
    36   32   33 1    
    37   33   34 1    
    38   34   35 1    
    39   34   36 1    
    40   34   37 1    
    41   33   38 1    
    42   38   39 1    
    43   38   40 1    
    44   38   41 1    
    45   33   42 1    
    46   42   43 1    
    47   42   44 1    
    48   42   45 1    
    49    5   46 1    
@<TRIPOS>SUBSTRUCTURE
     1 ****        2 TEMP              0 ****  ****    0 ROOT 
