#	Name:			ro17_1812
#	Creating user name:	becker
#	Creation time:		Wed Apr 19 13:40:35 2006

#	Modifying user name:	becker
#	Modification time:	Wed Apr 19 13:40:35 2006

@<TRIPOS>MOLECULE
ro17_1812
   41    45     1     0     0
SMALL
NO_CHARGES


@<TRIPOS>ATOM
      1 C           1.079000   -3.680000   -0.648000 C.ar      1 <1>         0.000000 
      2 H           0.684000   -4.690000   -0.700000 H         1 <1>         0.000000 
      3 C           2.452000   -3.457000   -0.755000 C.ar      1 <1>         0.000000 
      4 H           3.130000   -4.297000   -0.867000 H         1 <1>         0.000000 
      5 C           2.952000   -2.153000   -0.725000 C.ar      1 <1>         0.000000 
      6 C           2.088000   -1.063000   -0.546000 C.ar      1 <1>         0.000000 
      7 C           0.714000   -1.291000   -0.369000 C.ar      1 <1>         0.000000 
      8 C           0.216000   -2.595000   -0.476000 C.ar      1 <1>         0.000000 
      9 H          -0.853000   -2.776000   -0.425000 H         1 <1>         0.000000 
     10 N          -0.151000   -0.286000   -0.075000 N.pl3     1 <1>         0.000000 
     11 C          -1.054000   -0.369000    0.853000 C.ar      1 <1>         0.000000 
     12 H          -1.240000   -1.214000    1.517000 H         1 <1>         0.000000 
     13 N          -1.711000    0.694000    0.893000 N.ar      1 <1>         0.000000 
     14 C          -1.224000    1.617000   -0.094000 C.ar      1 <1>         0.000000 
     15 C          -0.233000    0.891000   -0.665000 C.ar      1 <1>         0.000000 
     16 C           0.713000    1.196000   -1.804000 C.3       1 <1>         0.000000 
     17 H           0.718000    0.439000   -2.605000 H         1 <1>         0.000000 
     18 N           1.986000    1.331000   -1.162000 N.am      1 <1>         0.000000 
     19 C           2.661000    0.338000   -0.552000 C.2       1 <1>         0.000000 
     20 O           3.739000    0.546000   -0.019000 O.2       1 <1>         0.000000 
     21 C           2.447000    2.679000   -1.323000 C.3       1 <1>         0.000000 
     22 H           2.330000    3.278000   -0.406000 H         1 <1>         0.000000 
     23 H           3.430000    2.773000   -1.810000 H         1 <1>         0.000000 
     24 C           1.201000    2.614000   -2.259000 C.3       1 <1>         0.000000 
     25 H           0.503000    3.447000   -2.150000 H         1 <1>         0.000000 
     26 H           1.529000    2.580000   -3.312000 H         1 <1>         0.000000 
     27 C          -1.839000    2.950000   -0.225000 C.2       1 <1>         0.000000 
     28 O          -3.012000    3.064000    0.097000 O.2       1 <1>         0.000000 
     29 O          -1.118000    3.991000   -0.651000 O.3       1 <1>         0.000000 
     30 C          -1.829000    5.242000   -0.706000 C.3       1 <1>         0.000000 
     31 H          -2.190000    5.524000    0.297000 H         1 <1>         0.000000 
     32 H          -2.685000    5.183000   -1.396000 H         1 <1>         0.000000 
     33 C          -0.838000    6.291000   -1.265000 C.3       1 <1>         0.000000 
     34 H          -0.459000    6.183000   -2.294000 H         1 <1>         0.000000 
     35 C          -0.902000    7.720000   -0.683000 C.3       1 <1>         0.000000 
     36 H          -1.683000    7.936000    0.062000 H         1 <1>         0.000000 
     37 H          -0.624000    8.539000   -1.364000 H         1 <1>         0.000000 
     38 C           0.230000    6.761000   -0.253000 C.3       1 <1>         0.000000 
     39 H           1.233000    6.989000   -0.646000 H         1 <1>         0.000000 
     40 H           0.175000    6.375000    0.777000 H         1 <1>         0.000000 
     41 Cl          4.678000   -1.918000   -0.927000 Cl        1 <1>         0.000000 
@<TRIPOS>BOND
     1    2    1 1    
     2    1    3 ar   
     3    3    4 1    
     4    3    5 ar   
     5    5    6 ar   
     6    6    7 ar   
     7    7    8 ar   
     8    8    9 1    
     9    8    1 ar   
    10    7   10 1    
    11   10   11 ar   
    12   11   12 1    
    13   11   13 ar   
    14   13   14 ar   
    15   14   15 ar   
    16   15   10 ar   
    17   15   16 1    
    18   16   17 1    
    19   16   18 1    
    20   18   19 am   
    21   19    6 1    
    22   19   20 2    
    23   18   21 1    
    24   21   22 1    
    25   21   23 1    
    26   21   24 1    
    27   24   25 1    
    28   24   26 1    
    29   24   16 1    
    30   14   27 1    
    31   27   28 2    
    32   27   29 1    
    33   29   30 1    
    34   30   31 1    
    35   30   32 1    
    36   30   33 1    
    37   33   34 1    
    38   33   35 1    
    39   35   36 1    
    40   35   37 1    
    41   35   38 1    
    42   38   39 1    
    43   38   40 1    
    44   38   33 1    
    45    5   41 1    
@<TRIPOS>SUBSTRUCTURE
     1 ****        2 TEMP              0 ****  ****    0 ROOT 
