@<TRIPOS>MOLECULE
18
 36 39 0 0 0
SMALL
GASTEIGER

@<TRIPOS>ATOM
      1 C           3.5978    1.3233   -0.1280 C.ar    1  LIG111     -0.0506
      2 C           4.8642    0.7253   -0.0638 C.ar    1  LIG111     -0.0610
      3 C           4.9994   -0.6535    0.0824 C.ar    1  LIG111     -0.0600
      4 C           2.4822    0.5128   -0.0394 C.ar    1  LIG111      0.0265
      5 C           2.6238   -0.9065    0.1140 C.ar    1  LIG111      0.0408
      6 C           3.8856   -1.4962    0.1748 C.ar    1  LIG111     -0.0399
      7 C           1.0348    0.8108   -0.0697 C.2     1  LIG111      0.1331
      8 C           0.3417   -0.5296    0.0855 C.2     1  LIG111      0.0738
      9 C          -0.9836   -0.8456    0.1325 C.2     1  LIG111      0.0692
     10 C          -1.4309   -2.2833    0.2793 C.2     1  LIG111      0.2508
     11 C          -2.2197   -0.0647    0.0675 C.ar    1  LIG111      0.0102
     12 C          -3.3252   -0.9966    0.1655 C.ar    1  LIG111      0.0422
     13 C          -2.5232    1.2798   -0.0524 C.ar    1  LIG111     -0.0515
     14 C          -3.8597    1.6967   -0.0812 C.ar    1  LIG111     -0.0539
     15 C          -4.9228    0.7916    0.0079 C.ar    1  LIG111     -0.0238
     16 C          -4.6509   -0.5827    0.1369 C.ar    1  LIG111     -0.0327
     17 N           1.3568   -1.4967    0.1836 N.pl3   1  LIG111     -0.3116
     18 N          -2.8343   -2.3062    0.2895 N.am    1  LIG111     -0.2809
     19 O          -0.7452   -3.3160    0.3783 O.2     1  LIG111     -0.2698
     20 N           0.4073    1.9465   -0.2036 N.2     1  LIG111     -0.0851
     21 O           1.1456    3.0217   -0.3310 O.2     1  LIG111     -0.4087
     22 C          -6.2865    1.2982   -0.0290 C.2     1  LIG111     -0.0616
     23 C          -7.3963    0.5588   -0.0756 C.2     1  LIG111     -0.0981
     24 H           3.4918    2.4129   -0.2432 H       1  LIG111      0.0625
     25 H           5.7615    1.3575   -0.1308 H       1  LIG111      0.0618
     26 H           6.0056   -1.0987    0.1290 H       1  LIG111      0.0618
     27 H           4.0080   -2.5810    0.2913 H       1  LIG111      0.0636
     28 H          -1.7449    2.0502   -0.1244 H       1  LIG111      0.0624
     29 H          -4.0735    2.7723   -0.1781 H       1  LIG111      0.0624
     30 H          -5.4698   -1.3104    0.2169 H       1  LIG111      0.0642
     31 H           1.1844   -2.4695    0.2882 H       1  LIG111      0.1522
     32 H          -3.3921   -3.1137    0.3753 H       1  LIG111      0.1552
     33 H           0.4975    3.7521   -0.4196 H       1  LIG111      0.3278
     34 H          -6.3644    2.4016   -0.0185 H       1  LIG111      0.0618
     35 H          -8.3929    1.0195   -0.1018 H       1  LIG111      0.0535
     36 H          -7.3971   -0.5382   -0.0949 H       1  LIG111      0.0535
@<TRIPOS>BOND
     1    33    21    1
     2    21    20    1
     3    24     1    1
     4    20     7    2
     5    29    14    1
     6    25     2    1
     7     1     2   ar
     8     1     4   ar
     9    28    13    1
    10    35    23    1
    11    36    23    1
    12    14    13   ar
    13    14    15   ar
    14    23    22    2
    15     7     4    1
    16     7     8    1
    17     2     3   ar
    18    13    11   ar
    19     4     5   ar
    20    22    34    1
    21    22    15    1
    22    15    16   ar
    23    11     9    1
    24    11    12   ar
    25     3    26    1
    26     3     6   ar
    27     8     9    2
    28     8    17    1
    29     5     6   ar
    30     5    17    1
    31     9    10    1
    32    16    12   ar
    33    16    30    1
    34    12    18    1
    35     6    27    1
    36    17    31    1
    37    10    18   am
    38    10    19    2
    39    18    32    1
