@<TRIPOS>MOLECULE
26
 35 38 0 0 0
SMALL
GASTEIGER

@<TRIPOS>ATOM
      1 C           3.5794    1.2951   -0.3225 C.ar    1  LIG111     -0.0506
      2 C           4.8501    0.7195   -0.1813 C.ar    1  LIG111     -0.0610
      3 C           4.9942   -0.6272    0.1431 C.ar    1  LIG111     -0.0600
      4 C           3.8858   -1.4583    0.3441 C.ar    1  LIG111     -0.0399
      5 C           2.4694    0.4953   -0.1322 C.ar    1  LIG111      0.0265
      6 C           2.6202   -0.8904    0.2084 C.ar    1  LIG111      0.0408
      7 C           1.0206    0.7740   -0.2181 C.2     1  LIG111      0.1333
      8 C           0.3388   -0.5370    0.1222 C.2     1  LIG111      0.0738
      9 C          -0.9847   -0.8550    0.1624 C.2     1  LIG111      0.0692
     10 C          -2.2160   -0.0671    0.1028 C.ar    1  LIG111      0.0102
     11 C          -3.3226   -1.0031    0.0674 C.ar    1  LIG111      0.0416
     12 C          -2.5049    1.2850    0.1422 C.ar    1  LIG111     -0.0520
     13 C          -3.8407    1.7118    0.0838 C.ar    1  LIG111     -0.0611
     14 C          -4.8883    0.8034    0.0077 C.ar    1  LIG111     -0.0600
     15 C          -4.6443   -0.5750    0.0095 C.ar    1  LIG111     -0.0399
     16 C          -1.4356   -2.2942    0.2462 C.2     1  LIG111      0.2508
     17 N          -2.8352   -2.3194    0.1191 N.am    1  LIG111     -0.2809
     18 N           1.3564   -1.4698    0.3906 N.pl3   1  LIG111     -0.3116
     19 O          -0.7516   -3.3251    0.3679 O.2     1  LIG111     -0.2698
     20 N           0.3737    1.8486   -0.5746 N.2     1  LIG111     -0.0829
     21 O           1.1077    2.8995   -0.8817 O.2     1  LIG111     -0.3966
     22 C           0.3298    4.0499   -1.2936 C.3     1  LIG111      0.1072
     23 H           3.4662    2.3586   -0.5826 H       1  LIG111      0.0625
     24 H           5.7429    1.3437   -0.3316 H       1  LIG111      0.0618
     25 H           6.0030   -1.0564    0.2461 H       1  LIG111      0.0618
     26 H           4.0158   -2.5178    0.6009 H       1  LIG111      0.0636
     27 H          -1.7194    2.0462    0.2362 H       1  LIG111      0.0624
     28 H          -4.0546    2.7905    0.1041 H       1  LIG111      0.0618
     29 H          -5.9271    1.1625   -0.0452 H       1  LIG111      0.0618
     30 H          -5.4767   -1.2900   -0.0283 H       1  LIG111      0.0636
     31 H          -3.4002   -3.1220    0.2088 H       1  LIG111      0.1552
     32 H           1.1899   -2.4477    0.4598 H       1  LIG111      0.1522
     33 H           1.1216    4.8265   -1.4358 H       1  LIG111      0.0687
     34 H          -0.2051    3.8375   -2.2490 H       1  LIG111      0.0687
     35 H          -0.3887    4.3495   -0.4946 H       1  LIG111      0.0687
@<TRIPOS>BOND
     1    34    22    1
     2    33    22    1
     3    22    21    1
     4    22    35    1
     5    21    20    1
     6    23     1    1
     7    20     7    2
     8    24     2    1
     9     1     2   ar
    10     1     5   ar
    11     7     5    1
    12     7     8    1
    13     2     3   ar
    14     5     6   ar
    15    29    14    1
    16    30    15    1
    17    14    15   ar
    18    14    13   ar
    19    15    11   ar
    20    11    10   ar
    21    11    17    1
    22    13    28    1
    23    13    12   ar
    24    10    12   ar
    25    10     9    1
    26    17    31    1
    27    17    16   am
    28     8     9    2
    29     8    18    1
    30    12    27    1
    31     3    25    1
    32     3     4   ar
    33     9    16    1
    34     6     4   ar
    35     6    18    1
    36    16    19    2
    37     4    26    1
    38    18    32    1
