@<TRIPOS>MOLECULE
32
 37 40 0 0 0
SMALL
GASTEIGER

@<TRIPOS>ATOM
      1 C           3.5950    1.3251   -0.1173 C.ar    1  LIG111     -0.0506
      2 C           4.8616    0.7279   -0.0695 C.ar    1  LIG111     -0.0610
      3 C           4.9984   -0.6522    0.0670 C.ar    1  LIG111     -0.0600
      4 C           2.4794    0.5142   -0.0269 C.ar    1  LIG111      0.0265
      5 C           2.6229   -0.9069    0.1125 C.ar    1  LIG111      0.0408
      6 C           3.8863   -1.4958    0.1603 C.ar    1  LIG111     -0.0399
      7 C           1.0324    0.8106   -0.0450 C.2     1  LIG111      0.1340
      8 C           0.3409   -0.5348    0.0930 C.2     1  LIG111      0.0738
      9 C          -0.9843   -0.8466    0.1342 C.2     1  LIG111      0.0692
     10 C          -1.4331   -2.2850    0.2819 C.2     1  LIG111      0.2508
     11 C          -2.2198   -0.0622    0.0667 C.ar    1  LIG111      0.0102
     12 C          -3.3250   -0.9961    0.1697 C.ar    1  LIG111      0.0427
     13 C          -2.5209    1.2811   -0.0659 C.ar    1  LIG111     -0.0510
     14 C          -3.8609    1.7002   -0.0966 C.ar    1  LIG111     -0.0471
     15 C          -4.9069    0.7896    0.0040 C.ar    1  LIG111      0.0197
     16 C          -4.6514   -0.5835    0.1397 C.ar    1  LIG111     -0.0259
     17 N           1.3586   -1.5010    0.1803 N.pl3   1  LIG111     -0.3116
     18 N          -2.8359   -2.3058    0.2967 N.am    1  LIG111     -0.2809
     19 N           0.3810    1.9336   -0.1510 N.2     1  LIG111     -0.0724
     20 O           1.1203    3.0283   -0.2650 O.3     1  LIG111     -0.3170
     21 C           0.4671    4.2712   -0.3781 C.2     1  LIG111      0.3327
     22 C           1.4889    5.3493   -0.4886 C.3     1  LIG111      0.0356
     23 O          -0.7526    4.3486   -0.3764 O.2     1  LIG111     -0.2486
     24 O          -0.7462   -3.3163    0.3784 O.2     1  LIG111     -0.2698
     25 BR         -6.6839    1.3850   -0.0406 Br      1  LIG111     -0.0502
     26 H           3.4878    2.4150   -0.2252 H       1  LIG111      0.0625
     27 H           5.7587    1.3599   -0.1412 H       1  LIG111      0.0618
     28 H           6.0054   -1.0969    0.1018 H       1  LIG111      0.0618
     29 H           4.0095   -2.5818    0.2667 H       1  LIG111      0.0636
     30 H          -1.7505    2.0640   -0.1513 H       1  LIG111      0.0625
     31 H          -4.0668    2.7775   -0.2032 H       1  LIG111      0.0629
     32 H          -5.4737   -1.3087    0.2191 H       1  LIG111      0.0647
     33 H           1.1876   -2.4748    0.2790 H       1  LIG111      0.1522
     34 H          -3.3952   -3.1128    0.3816 H       1  LIG111      0.1552
     35 H           0.9691    6.3340   -0.5814 H       1  LIG111      0.0342
     36 H           2.1378    5.3498    0.4213 H       1  LIG111      0.0342
     37 H           2.1286    5.1742   -1.3880 H       1  LIG111      0.0342
@<TRIPOS>BOND
     1    37    22    1
     2    35    22    1
     3    22    21    1
     4    22    36    1
     5    21    23    2
     6    21    20    1
     7    20    19    1
     8    26     1    1
     9    31    14    1
    10    30    13    1
    11    19     7    2
    12    27     2    1
    13     1     2   ar
    14     1     4   ar
    15    14    13   ar
    16    14    15   ar
    17     2     3   ar
    18    13    11   ar
    19     7     4    1
    20     7     8    1
    21    25    15    1
    22     4     5   ar
    23    15    16   ar
    24    11     9    1
    25    11    12   ar
    26     3    28    1
    27     3     6   ar
    28     8     9    2
    29     8    17    1
    30     5     6   ar
    31     5    17    1
    32     9    10    1
    33    16    12   ar
    34    16    32    1
    35     6    29    1
    36    12    18    1
    37    17    33    1
    38    10    18   am
    39    10    24    2
    40    18    34    1
