@<TRIPOS>MOLECULE
33
 37 40 0 0 0
SMALL
GASTEIGER

@<TRIPOS>ATOM
      1 C           3.5946    1.3249   -0.1188 C.ar    1  LIG111     -0.0506
      2 C           4.8614    0.7278   -0.0735 C.ar    1  LIG111     -0.0610
      3 C           4.9984   -0.6522    0.0618 C.ar    1  LIG111     -0.0600
      4 C           2.4792    0.5142   -0.0268 C.ar    1  LIG111      0.0265
      5 C           2.6229   -0.9068    0.1135 C.ar    1  LIG111      0.0408
      6 C           3.8864   -1.4960    0.1580 C.ar    1  LIG111     -0.0399
      7 C           1.0324    0.8106   -0.0428 C.2     1  LIG111      0.1340
      8 C           0.3410   -0.5348    0.0980 C.2     1  LIG111      0.0738
      9 C          -0.9841   -0.8465    0.1390 C.2     1  LIG111      0.0692
     10 C          -1.4334   -2.2851    0.2833 C.2     1  LIG111      0.2508
     11 C          -2.2195   -0.0619    0.0686 C.ar    1  LIG111      0.0102
     12 C          -3.3250   -0.9964    0.1662 C.ar    1  LIG111      0.0426
     13 C          -2.5203    1.2817   -0.0609 C.ar    1  LIG111     -0.0511
     14 C          -3.8620    1.6980   -0.0947 C.ar    1  LIG111     -0.0479
     15 C          -4.9066    0.7893   -0.0003 C.ar    1  LIG111      0.0152
     16 C          -4.6510   -0.5812    0.1324 C.ar    1  LIG111     -0.0267
     17 N           1.3586   -1.5007    0.1864 N.pl3   1  LIG111     -0.3116
     18 N          -2.8360   -2.3063    0.2922 N.am    1  LIG111     -0.2809
     19 N           0.3809    1.9332   -0.1494 N.2     1  LIG111     -0.0724
     20 O           1.1200    3.0279   -0.2650 O.3     1  LIG111     -0.3170
     21 C           0.4666    4.2701   -0.3844 C.2     1  LIG111      0.3327
     22 C           1.4881    5.3483   -0.4955 C.3     1  LIG111      0.0356
     23 O          -0.7533    4.3470   -0.3859 O.2     1  LIG111     -0.2486
     24 O          -0.7463   -3.3162    0.3815 O.2     1  LIG111     -0.2698
     25 I          -6.8235    1.4307   -0.0539 I       1  LIG111     -0.0438
     26 H           3.4874    2.4148   -0.2259 H       1  LIG111      0.0625
     27 H           5.7581    1.3602   -0.1464 H       1  LIG111      0.0618
     28 H           6.0054   -1.0973    0.0941 H       1  LIG111      0.0618
     29 H           4.0098   -2.5818    0.2643 H       1  LIG111      0.0636
     30 H          -1.7502    2.0651   -0.1412 H       1  LIG111      0.0625
     31 H          -4.0663    2.7761   -0.1993 H       1  LIG111      0.0628
     32 H          -5.4724   -1.3081    0.2078 H       1  LIG111      0.0647
     33 H           1.1878   -2.4746    0.2838 H       1  LIG111      0.1522
     34 H          -3.3954   -3.1135    0.3749 H       1  LIG111      0.1552
     35 H           0.9682    6.3325   -0.5937 H       1  LIG111      0.0342
     36 H           2.1338    5.3526    0.4166 H       1  LIG111      0.0342
     37 H           2.1311    5.1700   -1.3920 H       1  LIG111      0.0342
@<TRIPOS>BOND
     1    37    22    1
     2    35    22    1
     3    22    21    1
     4    22    36    1
     5    23    21    2
     6    21    20    1
     7    20    19    1
     8    26     1    1
     9    31    14    1
    10    19     7    2
    11    27     2    1
    12    30    13    1
    13     1     2   ar
    14     1     4   ar
    15    14    13   ar
    16    14    15   ar
    17     2     3   ar
    18    13    11   ar
    19    25    15    1
    20     7     4    1
    21     7     8    1
    22     4     5   ar
    23    15    16   ar
    24     3    28    1
    25     3     6   ar
    26    11     9    1
    27    11    12   ar
    28     8     9    2
    29     8    17    1
    30     5     6   ar
    31     5    17    1
    32    16    12   ar
    33    16    32    1
    34     9    10    1
    35     6    29    1
    36    12    18    1
    37    17    33    1
    38    10    18   am
    39    10    24    2
    40    18    34    1
