@<TRIPOS>MOLECULE
07
 33 35 0 0 0
SMALL
USER_CHARGES
****
From 3DB ct
@<TRIPOS>ATOM
      1 C          -2.1340    2.5050   -0.1520 C.ar    1  LIG1        0.1879
      2 H          -2.9690    3.1900   -0.2880 H       1  LIG1        0.0622
      3 C          -2.3560    1.1480    0.0350 C.ar    1  LIG1       -0.4667
      4 C          -1.2800    0.2830    0.2010 C.ar    1  LIG1        0.1383
      5 H          -1.4690   -0.7800    0.3350 H       1  LIG1        0.0683
      6 C           0.0390    0.7770    0.1800 C.ar    1  LIG1        0.0085
      7 C           0.2840    2.1610    0.0480 C.ar    1  LIG1        0.0948
      8 C          -0.8280    3.0040   -0.1470 C.ar    1  LIG1       -0.2262
      9 H          -0.7100    4.0800   -0.2590 H       1  LIG1        0.1293
     10 N           1.5950    2.7420    0.1020 N.am    1  LIG1       -0.2497
     11 C           2.6360    2.2370    0.8850 C.2     1  LIG1        0.4253
     12 C           2.3000    1.0700    1.8060 C.3     1  LIG1        0.0864
     13 H           3.1320    0.9400    2.5080 H       1  LIG1        0.0591
     14 H           1.4110    1.2750    2.4130 H       1  LIG1        0.0198
     15 N           2.1830   -0.1410    0.9950 N.2     1  LIG1       -0.3793
     16 C           1.1390   -0.2360    0.2350 C.2     1  LIG1        0.1393
     17 C           1.0410   -1.4460   -0.6440 C.ar    1  LIG1        0.1069
     18 C           0.5420   -1.3520   -1.9500 C.ar    1  LIG1       -0.1943
     19 H           0.2180   -0.4000   -2.3620 H       1  LIG1        0.1188
     20 C           0.4700   -2.4930   -2.7520 C.ar    1  LIG1       -0.0658
     21 H           0.0800   -2.4200   -3.7660 H       1  LIG1        0.1001
     22 C           0.9020   -3.7240   -2.2590 C.ar    1  LIG1       -0.1160
     23 H           0.8450   -4.6120   -2.8870 H       1  LIG1        0.1060
     24 C           1.4130   -3.8190   -0.9650 C.ar    1  LIG1       -0.0622
     25 H           1.7550   -4.7790   -0.5840 H       1  LIG1        0.0990
     26 C           1.4880   -2.6820   -0.1590 C.ar    1  LIG1       -0.1629
     27 H           1.8890   -2.7670    0.8500 H       1  LIG1        0.1356
     28 O           3.7740    2.7240    0.8830 O.2     1  LIG1       -0.3904
     29 C           1.8390    3.9820   -0.6320 C.3     1  LIG1       -0.0897
     30 H           2.9080    4.1270   -0.8160 H       1  LIG1        0.0981
     31 H           1.4810    4.8260   -0.0350 H       1  LIG1        0.0546
     32 H           1.3350    3.9540   -1.6030 H       1  LIG1        0.0738
     33 CL         -3.9620    0.5330    0.0470 Cl      1  LIG1        0.0913
@<TRIPOS>BOND
     1     2     1    1
     2     1     3   ar
     3     3     4   ar
     4     4     5    1
     5     4     6   ar
     6     6     7   ar
     7     7     8   ar
     8     8     9    1
     9     8     1   ar
    10     7    10    1
    11    10    11   am
    12    11    12    1
    13    12    13    1
    14    12    14    1
    15    12    15    1
    16    15    16    2
    17    16     6    1
    18    16    17    1
    19    17    18   ar
    20    18    19    1
    21    18    20   ar
    22    20    21    1
    23    20    22   ar
    24    22    23    1
    25    22    24   ar
    26    24    25    1
    27    24    26   ar
    28    26    27    1
    29    26    17   ar
    30    11    28    2
    31    10    29    1
    32    29    30    1
    33    29    31    1
    34    29    32    1
    35     3    33    1
