@<TRIPOS>MOLECULE
16
 35 37 0 0 0
SMALL
USER_CHARGES
****
From 3DB ct
@<TRIPOS>ATOM
      1 C          -2.1460    2.4990   -0.1430 C.ar    1  LIG1        0.1736
      2 H          -2.9830    3.1820   -0.2780 H       1  LIG1        0.0660
      3 C          -2.3630    1.1420    0.0400 C.ar    1  LIG1       -0.4646
      4 C          -1.2840    0.2820    0.2040 C.ar    1  LIG1        0.1503
      5 H          -1.4690   -0.7810    0.3380 H       1  LIG1        0.0664
      6 C           0.0330    0.7830    0.1850 C.ar    1  LIG1       -0.0478
      7 C           0.2760    2.1680    0.0540 C.ar    1  LIG1        0.1610
      8 C          -0.8410    3.0050   -0.1370 C.ar    1  LIG1       -0.2179
      9 H          -0.7390    4.0820   -0.2470 H       1  LIG1        0.1313
     10 N           1.5940    2.7470    0.1030 N.am    1  LIG1       -0.3371
     11 C           2.6320    2.2270    0.8810 C.2     1  LIG1        0.4513
     12 C           2.2780    1.0790    1.8200 C.3     1  LIG1        0.1002
     13 H           3.1010    0.9560    2.5330 H       1  LIG1        0.0526
     14 H           1.3840    1.2970    2.4140 H       1  LIG1        0.0221
     15 N           2.1660   -0.1410    1.0200 N.2     1  LIG1       -0.3957
     16 C           1.1320   -0.2310    0.2470 C.2     1  LIG1        0.1775
     17 C           1.0420   -1.4370   -0.6380 C.ar    1  LIG1        0.0932
     18 C           0.5480   -1.3370   -1.9450 C.ar    1  LIG1       -0.1852
     19 H           0.2220   -0.3830   -2.3530 H       1  LIG1        0.1160
     20 C           0.4830   -2.4740   -2.7550 C.ar    1  LIG1       -0.0710
     21 H           0.0970   -2.3970   -3.7700 H       1  LIG1        0.1011
     22 C           0.9180   -3.7060   -2.2670 C.ar    1  LIG1       -0.1130
     23 H           0.8670   -4.5900   -2.9010 H       1  LIG1        0.1054
     24 C           1.4250   -3.8060   -0.9720 C.ar    1  LIG1       -0.0638
     25 H           1.7690   -4.7680   -0.5950 H       1  LIG1        0.0988
     26 C           1.4920   -2.6730   -0.1590 C.ar    1  LIG1       -0.1602
     27 H           1.8900   -2.7630    0.8510 H       1  LIG1        0.1359
     28 O           3.7860    2.6730    0.8570 O.2     1  LIG1       -0.3859
     29 C           1.8810    3.9520   -0.6860 C.3     1  LIG1        0.0421
     30 H           1.1200    4.0950   -1.4600 H       1  LIG1        0.0840
     31 H           2.8200    3.8200   -1.2330 H       1  LIG1        0.1110
     32 C           1.9070    5.1570    0.1630 C.1     1  LIG1       -0.0932
     33 C           1.9290    6.1370    0.8580 C.1     1  LIG1       -0.2807
     34 H           1.9490    7.0070    1.4760 H       1  LIG1        0.2859
     35 CL         -3.9670    0.5210    0.0510 Cl      1  LIG1        0.0905
@<TRIPOS>BOND
     1     2     1    1
     2     1     3   ar
     3     3     4   ar
     4     4     5    1
     5     4     6   ar
     6     6     7   ar
     7     7     8   ar
     8     8     9    1
     9     8     1   ar
    10     7    10    1
    11    10    11   am
    12    11    12    1
    13    12    13    1
    14    12    14    1
    15    12    15    1
    16    15    16    2
    17    16     6    1
    18    16    17    1
    19    17    18   ar
    20    18    19    1
    21    18    20   ar
    22    20    21    1
    23    20    22   ar
    24    22    23    1
    25    22    24   ar
    26    24    25    1
    27    24    26   ar
    28    26    27    1
    29    26    17   ar
    30    11    28    2
    31    10    29    1
    32    29    30    1
    33    29    31    1
    34    29    32    1
    35    32    33    3
    36    33    34    1
    37     3    35    1
