@<TRIPOS>MOLECULE
17
 33 35 0 0 0
SMALL
USER_CHARGES
****
From 3DB ct
@<TRIPOS>ATOM
      1 C          -2.1010    2.5080   -0.2180 C.ar    1  LIG1        0.0653
      2 H          -2.9180    3.2050   -0.4020 H       1  LIG1        0.1151
      3 C          -2.3610    1.1460   -0.0330 C.ar    1  LIG1       -0.3768
      4 C          -1.2760    0.2780    0.1660 C.ar    1  LIG1       -0.0351
      5 H          -1.4720   -0.7890    0.2740 H       1  LIG1        0.1421
      6 C           0.0480    0.7590    0.2050 C.ar    1  LIG1       -0.0555
      7 C           0.2850    2.1390    0.1030 C.ar    1  LIG1        0.2997
      8 C          -0.7930    2.9980   -0.1520 C.ar    1  LIG1       -0.2709
      9 H          -0.6330    4.0690   -0.2700 H       1  LIG1        0.1433
     10 N           1.5450    2.7490    0.2300 N.am    1  LIG1       -0.5863
     11 H           1.6600    3.6860   -0.1470 H       1  LIG1        0.3310
     12 C           2.6290    2.2680    0.9180 C.2     1  LIG1        0.4989
     13 C           2.4100    1.0330    1.7790 C.3     1  LIG1        0.0750
     14 H           3.3010    0.8910    2.4010 H       1  LIG1        0.0611
     15 H           1.5670    1.1770    2.4640 H       1  LIG1        0.0293
     16 N           2.2450   -0.1450    0.9290 N.2     1  LIG1       -0.3959
     17 C           1.1630   -0.2440    0.2280 C.2     1  LIG1        0.2652
     18 C           1.0400   -1.4570   -0.6450 C.ar    1  LIG1       -0.0275
     19 C           0.5280   -1.3610   -1.9460 C.ar    1  LIG1       -0.1019
     20 H           0.2140   -0.4050   -2.3570 H       1  LIG1        0.0959
     21 C           0.4310   -2.5050   -2.7420 C.ar    1  LIG1       -0.0998
     22 H           0.0310   -2.4310   -3.7520 H       1  LIG1        0.1068
     23 C           0.8520   -3.7400   -2.2470 C.ar    1  LIG1       -0.0932
     24 H           0.7750   -4.6290   -2.8710 H       1  LIG1        0.1031
     25 C           1.3770   -3.8350   -0.9590 C.ar    1  LIG1       -0.0634
     26 H           1.7100   -4.7990   -0.5770 H       1  LIG1        0.0972
     27 C           1.4760   -2.6960   -0.1580 C.ar    1  LIG1       -0.1334
     28 H           1.8880   -2.7810    0.8460 H       1  LIG1        0.1309
     29 O           3.7100    2.8650    0.8850 O.2     1  LIG1       -0.4064
     30 C          -3.7680    0.6060   -0.1060 C.3     1  LIG1        1.0631
     31 F          -4.0070   -0.3980    0.7910 F       1  LIG1       -0.3245
     32 F          -4.0670    0.0810   -1.3320 F       1  LIG1       -0.3260
     33 F          -4.7330    1.5440    0.1370 F       1  LIG1       -0.3265
@<TRIPOS>BOND
     1     2     1    1
     2     1     3   ar
     3     3     4   ar
     4     4     5    1
     5     4     6   ar
     6     6     7   ar
     7     7     8   ar
     8     8     9    1
     9     8     1   ar
    10     7    10    1
    11    10    11    1
    12    10    12   am
    13    12    13    1
    14    13    14    1
    15    13    15    1
    16    13    16    1
    17    16    17    2
    18    17     6    1
    19    17    18    1
    20    18    19   ar
    21    19    20    1
    22    19    21   ar
    23    21    22    1
    24    21    23   ar
    25    23    24    1
    26    23    25   ar
    27    25    26    1
    28    25    27   ar
    29    27    28    1
    30    27    18   ar
    31    12    29    2
    32     3    30    1
    33    30    31    1
    34    30    32    1
    35    30    33    1
