@<TRIPOS>MOLECULE
28
 32 34 0 0 0
SMALL
USER_CHARGES
****
From 3DB ct
@<TRIPOS>ATOM
      1 C          -2.0940    2.4570   -0.2670 C.ar    1  LIG1       -0.3269
      2 H          -2.9140    3.1410   -0.4790 H       1  LIG1        0.1594
      3 C          -2.3420    1.1000   -0.0760 C.ar    1  LIG1        0.4943
      4 C          -1.2560    0.2460    0.1260 C.ar    1  LIG1       -0.4051
      5 H          -1.4470   -0.8220    0.2110 H       1  LIG1        0.1734
      6 C           0.0610    0.7400    0.2110 C.ar    1  LIG1        0.0317
      7 C           0.2860    2.1230    0.1100 C.ar    1  LIG1        0.1342
      8 C          -0.7950    2.9660   -0.1710 C.ar    1  LIG1       -0.1108
      9 H          -0.6480    4.0380   -0.2940 H       1  LIG1        0.1268
     10 N           1.5380    2.7510    0.2410 N.am    1  LIG1       -0.5436
     11 H           1.6380    3.6890   -0.1360 H       1  LIG1        0.3197
     12 C           2.6340    2.2860    0.9180 C.2     1  LIG1        0.4398
     13 C           2.4440    1.0460    1.7740 C.3     1  LIG1        0.1726
     14 H           3.3440    0.9130    2.3860 H       1  LIG1        0.0389
     15 H           1.6080    1.1770    2.4700 H       1  LIG1        0.0140
     16 N           2.2840   -0.1320    0.9240 N.2     1  LIG1       -0.4568
     17 C           1.1830   -0.2510    0.2560 C.2     1  LIG1        0.2104
     18 C           1.0520   -1.4700   -0.5910 C.ar    1  LIG1        0.4684
     19 C           1.5040   -2.6880   -0.0620 C.ar    1  LIG1       -0.3863
     20 H           1.9390   -2.7330    0.9340 H       1  LIG1        0.1791
     21 C           1.3870   -3.8580   -0.8130 C.ar    1  LIG1        0.0653
     22 H           1.7360   -4.8040   -0.4040 H       1  LIG1        0.0869
     23 C           0.8190   -3.8160   -2.0860 C.ar    1  LIG1       -0.2426
     24 H           0.7290   -4.7300   -2.6710 H       1  LIG1        0.1266
     25 C           0.3680   -2.6030   -2.6140 C.ar    1  LIG1        0.2207
     26 H          -0.0670   -2.5870   -3.6110 H       1  LIG1        0.0472
     27 C           0.4810   -1.4260   -1.8690 C.ar    1  LIG1       -0.5826
     28 CL         -0.0520    0.0470   -2.5980 Cl      1  LIG1        0.1088
     29 O           3.7040    2.9020    0.8800 O.2     1  LIG1       -0.4154
     30 N          -3.6190    0.5930   -0.2240 N.pl3   1  LIG1       -0.8739
     31 H          -3.8280   -0.3650    0.0480 H       1  LIG1        0.3644
     32 H          -4.4200    1.2200   -0.2380 H       1  LIG1        0.3614
@<TRIPOS>BOND
     1     2     1    1
     2     1     3   ar
     3     3     4   ar
     4     4     5    1
     5     4     6   ar
     6     6     7   ar
     7     7     8   ar
     8     8     9    1
     9     8     1   ar
    10     7    10    1
    11    10    11    1
    12    10    12   am
    13    12    13    1
    14    13    14    1
    15    13    15    1
    16    13    16    1
    17    16    17    2
    18    17     6    1
    19    17    18    1
    20    18    19   ar
    21    19    20    1
    22    19    21   ar
    23    21    22    1
    24    21    23   ar
    25    23    24    1
    26    23    25   ar
    27    25    26    1
    28    25    27   ar
    29    27    18   ar
    30    27    28    1
    31    12    29    2
    32     3    30    1
    33    30    31    1
    34    30    32    1
