@<TRIPOS>MOLECULE
29
 33 35 0 0 0
SMALL
USER_CHARGES
****
From 3DB ct
@<TRIPOS>ATOM
      1 C          -2.1350    2.5070   -0.1490 C.ar    1  LIG1       -0.2677
      2 H          -2.9800    3.1770   -0.2810 H       1  LIG1        0.1681
      3 C          -2.3480    1.1530    0.0360 C.ar    1  LIG1        0.4040
      4 C          -1.2800    0.2840    0.2000 C.ar    1  LIG1       -0.3435
      5 H          -1.4880   -0.7750    0.3310 H       1  LIG1        0.1937
      6 C           0.0370    0.7760    0.1800 C.ar    1  LIG1        0.0989
      7 C           0.2820    2.1620    0.0480 C.ar    1  LIG1       -0.0428
      8 C          -0.8290    3.0070   -0.1450 C.ar    1  LIG1       -0.0447
      9 H          -0.7110    4.0830   -0.2560 H       1  LIG1        0.1160
     10 N           1.5930    2.7410    0.1010 N.am    1  LIG1       -0.2148
     11 C           2.6350    2.2360    0.8840 C.2     1  LIG1        0.4120
     12 C           2.2990    1.0700    1.8060 C.3     1  LIG1        0.0733
     13 H           3.1300    0.9400    2.5080 H       1  LIG1        0.0626
     14 H           1.4090    1.2750    2.4120 H       1  LIG1        0.0265
     15 N           2.1810   -0.1420    0.9960 N.2     1  LIG1       -0.3950
     16 C           1.1370   -0.2370    0.2350 C.2     1  LIG1        0.2700
     17 C           1.0400   -1.4470   -0.6430 C.ar    1  LIG1       -0.0393
     18 C           0.5420   -1.3530   -1.9490 C.ar    1  LIG1       -0.1197
     19 H           0.2180   -0.4010   -2.3620 H       1  LIG1        0.1037
     20 C           0.4720   -2.4940   -2.7520 C.ar    1  LIG1       -0.0799
     21 H           0.0830   -2.4210   -3.7670 H       1  LIG1        0.0994
     22 C           0.9050   -3.7250   -2.2600 C.ar    1  LIG1       -0.1061
     23 H           0.8500   -4.6120   -2.8890 H       1  LIG1        0.1035
     24 C           1.4150   -3.8190   -0.9650 C.ar    1  LIG1       -0.0631
     25 H           1.7580   -4.7790   -0.5840 H       1  LIG1        0.0962
     26 C           1.4880   -2.6820   -0.1580 C.ar    1  LIG1       -0.1212
     27 H           1.8890   -2.7680    0.8500 H       1  LIG1        0.1259
     28 O           3.7730    2.7230    0.8820 O.2     1  LIG1       -0.3872
     29 C           1.8390    3.9800   -0.6340 C.3     1  LIG1       -0.0921
     30 H           2.9070    4.1220   -0.8220 H       1  LIG1        0.0955
     31 H           1.4850    4.8250   -0.0360 H       1  LIG1        0.0519
     32 H           1.3320    3.9540   -1.6040 H       1  LIG1        0.0744
     33 F          -3.5990    0.6740    0.0470 F       1  LIG1       -0.2585
@<TRIPOS>BOND
     1     2     1    1
     2     1     3   ar
     3     3     4   ar
     4     4     5    1
     5     4     6   ar
     6     6     7   ar
     7     7     8   ar
     8     8     9    1
     9     8     1   ar
    10     7    10    1
    11    10    11   am
    12    11    12    1
    13    12    13    1
    14    12    14    1
    15    12    15    1
    16    15    16    2
    17    16     6    1
    18    16    17    1
    19    17    18   ar
    20    18    19    1
    21    18    20   ar
    22    20    21    1
    23    20    22   ar
    24    22    23    1
    25    22    24   ar
    26    24    25    1
    27    24    26   ar
    28    26    27    1
    29    26    17   ar
    30    11    28    2
    31    10    29    1
    32    29    30    1
    33    29    31    1
    34    29    32    1
    35     3    33    1
