@<TRIPOS>MOLECULE
30
 30 32 0 0 0
SMALL
USER_CHARGES
****
From 3DB ct
@<TRIPOS>ATOM
      1 C          -2.1020    2.4920   -0.2270 C.ar    1  LIG1       -0.2150
      2 H          -2.9390    3.1610   -0.4030 H       1  LIG1        0.1631
      3 C          -2.3210    1.1320   -0.0710 C.ar    1  LIG1        0.3799
      4 C          -1.2620    0.2560    0.1360 C.ar    1  LIG1       -0.2842
      5 H          -1.4800   -0.8040    0.2250 H       1  LIG1        0.1848
      6 C           0.0530    0.7470    0.2020 C.ar    1  LIG1       -0.0978
      7 C           0.2800    2.1340    0.1130 C.ar    1  LIG1        0.2181
      8 C          -0.8020    2.9910   -0.1420 C.ar    1  LIG1       -0.1644
      9 H          -0.6480    4.0640   -0.2440 H       1  LIG1        0.1378
     10 N           1.5360    2.7530    0.2440 N.am    1  LIG1       -0.5626
     11 H           1.6430    3.6930   -0.1270 H       1  LIG1        0.3215
     12 C           2.6280    2.2760    0.9200 C.2     1  LIG1        0.4914
     13 C           2.4260    1.0340    1.7730 C.3     1  LIG1        0.0616
     14 H           3.3220    0.8950    2.3890 H       1  LIG1        0.0662
     15 H           1.5870    1.1680    2.4650 H       1  LIG1        0.0335
     16 N           2.2640   -0.1400    0.9180 N.2     1  LIG1       -0.4298
     17 C           1.1730   -0.2490    0.2330 C.2     1  LIG1        0.4726
     18 C           1.0440   -1.4580   -0.6290 C.ar    1  LIG1       -0.3061
     19 C           1.4650   -2.7070   -0.1550 C.ar    1  LIG1       -0.0324
     20 H           1.8870   -2.8150    0.8420 H       1  LIG1        0.1256
     21 C           1.3310   -3.8370   -0.9670 C.ar    1  LIG1       -0.1195
     22 H           1.6580   -4.8090   -0.6010 H       1  LIG1        0.1085
     23 C           0.7760   -3.7230   -2.2430 C.ar    1  LIG1       -0.0354
     24 H           0.6730   -4.6050   -2.8720 H       1  LIG1        0.1102
     25 C           0.3500   -2.4790   -2.7120 C.ar    1  LIG1       -0.2646
     26 H          -0.0800   -2.3840   -3.7050 H       1  LIG1        0.1538
     27 C           0.4830   -1.3530   -1.9030 C.ar    1  LIG1        0.4189
     28 F           0.0890   -0.1660   -2.3880 F       1  LIG1       -0.2620
     29 O           3.7040    2.8830    0.8840 O.2     1  LIG1       -0.4138
     30 F          -3.5690    0.6520   -0.1420 F       1  LIG1       -0.2598
@<TRIPOS>BOND
     1     2     1    1
     2     1     3   ar
     3     3     4   ar
     4     4     5    1
     5     4     6   ar
     6     6     7   ar
     7     7     8   ar
     8     8     9    1
     9     8     1   ar
    10     7    10    1
    11    10    11    1
    12    10    12   am
    13    12    13    1
    14    13    14    1
    15    13    15    1
    16    13    16    1
    17    16    17    2
    18    17     6    1
    19    17    18    1
    20    18    19   ar
    21    19    20    1
    22    19    21   ar
    23    21    22    1
    24    21    23   ar
    25    23    24    1
    26    23    25   ar
    27    25    26    1
    28    25    27   ar
    29    27    18   ar
    30    27    28    1
    31    12    29    2
    32     3    30    1
