@<TRIPOS>MOLECULE
40
 33 35 0 0 0
SMALL
USER_CHARGES
****
From 3DB ct
@<TRIPOS>ATOM
      1 C          -2.1070    2.5040   -0.1800 C.ar    1  LIG1        0.2479
      2 H          -2.9330    3.1920   -0.3470 H       1  LIG1        0.0575
      3 C          -2.3390    1.1440   -0.0080 C.ar    1  LIG1       -0.4953
      4 C          -1.2740    0.2670    0.1850 C.ar    1  LIG1        0.2238
      5 H          -1.4750   -0.7960    0.2930 H       1  LIG1        0.0528
      6 C           0.0450    0.7540    0.2160 C.ar    1  LIG1       -0.2770
      7 C           0.2800    2.1360    0.1170 C.ar    1  LIG1        0.4507
      8 C          -0.8010    2.9960   -0.1230 C.ar    1  LIG1       -0.3803
      9 H          -0.6440    4.0680   -0.2340 H       1  LIG1        0.1579
     10 N           1.5410    2.7450    0.2310 N.am    1  LIG1       -0.7002
     11 H           1.6510    3.6820   -0.1490 H       1  LIG1        0.3560
     12 C           2.6370    2.2720    0.9080 C.2     1  LIG1        0.5104
     13 C           2.4260    1.0280    1.7830 C.3     1  LIG1        0.3288
     14 H           1.5610    1.1810    2.4400 H       1  LIG1       -0.0162
     15 N           2.2480   -0.1440    0.9200 N.2     1  LIG1       -0.4835
     16 C           1.1620   -0.2440    0.2250 C.2     1  LIG1        0.3645
     17 C           1.0370   -1.4540   -0.6420 C.ar    1  LIG1       -0.1480
     18 C           1.4730   -2.6920   -0.1530 C.ar    1  LIG1       -0.0518
     19 H           1.8860   -2.7760    0.8500 H       1  LIG1        0.1298
     20 C           1.3690   -3.8330   -0.9540 C.ar    1  LIG1       -0.1424
     21 H           1.7010   -4.7960   -0.5710 H       1  LIG1        0.1154
     22 C           0.8420   -3.7390   -2.2430 C.ar    1  LIG1       -0.0313
     23 H           0.7630   -4.6290   -2.8650 H       1  LIG1        0.1109
     24 C           0.4230   -2.5040   -2.7380 C.ar    1  LIG1       -0.2610
     25 H           0.0230   -2.4220   -3.7450 H       1  LIG1        0.1552
     26 C           0.5270   -1.3680   -1.9390 C.ar    1  LIG1        0.3433
     27 F           0.1450   -0.1880   -2.4530 F       1  LIG1       -0.2416
     28 C           3.6400    0.7610    2.6660 C.3     1  LIG1       -0.2796
     29 H           3.8380    1.6110    3.3270 H       1  LIG1        0.0532
     30 H           4.5410    0.5850    2.0670 H       1  LIG1        0.0862
     31 H           3.4790   -0.1260    3.2880 H       1  LIG1        0.0884
     32 O           3.7070    2.8870    0.8480 O.2     1  LIG1       -0.4125
     33 CL         -3.9480    0.5370   -0.0620 Cl      1  LIG1        0.0878
@<TRIPOS>BOND
     1     2     1    1
     2     1     3   ar
     3     3     4   ar
     4     4     5    1
     5     4     6   ar
     6     6     7   ar
     7     7     8   ar
     8     8     9    1
     9     8     1   ar
    10     7    10    1
    11    10    11    1
    12    10    12   am
    13    12    13    1
    14    13    14    1
    15    13    15    1
    16    15    16    2
    17    16     6    1
    18    16    17    1
    19    17    18   ar
    20    18    19    1
    21    18    20   ar
    22    20    21    1
    23    20    22   ar
    24    22    23    1
    25    22    24   ar
    26    24    25    1
    27    24    26   ar
    28    26    17   ar
    29    26    27    1
    30    13    28    1
    31    28    29    1
    32    28    30    1
    33    28    31    1
    34    12    32    2
    35     3    33    1
