@<TRIPOS>MOLECULE
43
 27 29 0 0 0
SMALL
USER_CHARGES
****
From 3DB ct
@<TRIPOS>ATOM
      1 C           0.2680    2.0160    0.2410 C.ar    1  LIG1       -0.0475
      2 C           0.1270    0.6460    0.1660 C.ar    1  LIG1        0.1892
      3 C           1.2420   -0.3010    0.1720 C.2     1  LIG1        0.1162
      4 N           2.3620   -0.1180    0.7860 N.2     1  LIG1       -0.4382
      5 C           2.5120    1.0220    1.6940 C.3     1  LIG1        0.2125
      6 H           3.4640    0.9090    2.2240 H       1  LIG1        0.0240
      7 H           1.7320    1.0300    2.4650 H       1  LIG1       -0.0042
      8 C           2.5450    2.3590    0.9650 C.2     1  LIG1        0.4747
      9 N           1.3660    2.8120    0.4340 N.am    1  LIG1       -0.5095
     10 H           1.3040    3.7910    0.1750 H       1  LIG1        0.3535
     11 O           3.5610    3.0620    0.9330 O.2     1  LIG1       -0.4145
     12 C           1.0800   -1.5320   -0.6360 C.ar    1  LIG1        0.3225
     13 C           1.5760   -2.7360   -0.1170 C.ar    1  LIG1       -0.2989
     14 H           2.0690   -2.7610    0.8530 H       1  LIG1        0.1697
     15 C           1.4330   -3.9160   -0.8470 C.ar    1  LIG1        0.0192
     16 H           1.8170   -4.8540   -0.4480 H       1  LIG1        0.0906
     17 C           0.7950   -3.8960   -2.0870 C.ar    1  LIG1       -0.1780
     18 H           0.6840   -4.8170   -2.6560 H       1  LIG1        0.1186
     19 C           0.3000   -2.6950   -2.6030 C.ar    1  LIG1        0.1167
     20 H          -0.1900   -2.6960   -3.5750 H       1  LIG1        0.0620
     21 C           0.4390   -1.5080   -1.8790 C.ar    1  LIG1       -0.4158
     22 CL         -0.1590   -0.0490   -2.5850 Cl      1  LIG1        0.0799
     23 C          -1.2630    0.3170   -0.0290 C.ar    1  LIG1       -0.3662
     24 H          -1.6540   -0.6920   -0.1150 H       1  LIG1        0.2107
     25 C          -2.0720    1.4290   -0.1310 C.ar    1  LIG1       -0.2443
     26 H          -3.1430    1.4560   -0.2890 H       1  LIG1        0.1937
     27 S          -1.1710    2.8750   -0.0230 S.2     1  LIG1        0.1632
@<TRIPOS>BOND
     1     1     2   ar
     2     2     3    1
     3     3     4    2
     4     4     5    1
     5     5     6    1
     6     5     7    1
     7     5     8    1
     8     8     9   am
     9     9    10    1
    10     9     1    1
    11     8    11    2
    12     3    12    1
    13    12    13   ar
    14    13    14    1
    15    13    15   ar
    16    15    16    1
    17    15    17   ar
    18    17    18    1
    19    17    19   ar
    20    19    20    1
    21    19    21   ar
    22    21    12   ar
    23    21    22    1
    24     2    23   ar
    25    23    24    1
    26    23    25   ar
    27    25    26    1
    28    25    27   ar
    29    27     1   ar
