@<TRIPOS>MOLECULE
44
 33 35 0 0 0
SMALL
USER_CHARGES
****
From 3DB ct
@<TRIPOS>ATOM
      1 C          -2.5720    1.8250    0.1170 C.ar    1  LIG1        0.1408
      2 H          -3.5270    2.3480    0.1040 H       1  LIG1        0.0647
      3 C          -2.5670    0.4390    0.1970 C.ar    1  LIG1       -0.1770
      4 H          -3.5050   -0.1120    0.2340 H       1  LIG1        0.1293
      5 C          -1.3550   -0.2370    0.2530 C.ar    1  LIG1       -0.1005
      6 H          -1.3740   -1.3230    0.3390 H       1  LIG1        0.1264
      7 C          -0.1360    0.4660    0.2030 C.ar    1  LIG1       -0.0772
      8 C          -0.1140    1.8800    0.1180 C.ar    1  LIG1        0.3999
      9 C          -1.3670    2.5420    0.0890 C.ar    1  LIG1       -0.4361
     10 CL         -1.5460    4.2680    0.1700 Cl      1  LIG1        0.0858
     11 N           1.1310    2.5990    0.0580 N.am    1  LIG1       -0.3981
     12 C           2.2450    2.2800    0.8380 C.2     1  LIG1        0.4459
     13 C           2.1030    1.0910    1.7780 C.3     1  LIG1        0.0621
     14 H           2.9620    1.0860    2.4580 H       1  LIG1        0.0671
     15 H           1.2070    1.1660    2.4040 H       1  LIG1        0.0154
     16 N           2.1440   -0.1240    0.9600 N.2     1  LIG1       -0.4003
     17 C           1.1090   -0.3670    0.2210 C.2     1  LIG1        0.3531
     18 C           1.1670   -1.5560   -0.6760 C.ar    1  LIG1       -0.1984
     19 C           1.7280   -2.7550   -0.2170 C.ar    1  LIG1       -0.0618
     20 H           2.1260   -2.8390    0.7920 H       1  LIG1        0.1292
     21 C           1.7680   -3.8700   -1.0580 C.ar    1  LIG1       -0.1134
     22 H           2.2030   -4.8030   -0.7030 H       1  LIG1        0.1111
     23 C           1.2470   -3.7940   -2.3510 C.ar    1  LIG1       -0.0572
     24 H           1.2790   -4.6650   -3.0030 H       1  LIG1        0.1134
     25 C           0.6830   -2.6020   -2.8070 C.ar    1  LIG1       -0.2234
     26 H           0.2790   -2.5350   -3.8130 H       1  LIG1        0.1448
     27 C           0.6430   -1.4900   -1.9690 C.ar    1  LIG1        0.3309
     28 F           0.1190   -0.3510   -2.4460 F       1  LIG1       -0.2390
     29 O           3.3030    2.9210    0.7840 O.2     1  LIG1       -0.3831
     30 C           1.2780    3.7010   -0.8850 C.3     1  LIG1       -0.1492
     31 H           2.2700    3.6560   -1.3470 H       1  LIG1        0.1074
     32 H           1.2080    4.6500   -0.3470 H       1  LIG1        0.0876
     33 H           0.5410    3.6410   -1.6920 H       1  LIG1        0.1000
@<TRIPOS>BOND
     1     2     1    1
     2     1     3   ar
     3     3     4    1
     4     3     5   ar
     5     5     6    1
     6     5     7   ar
     7     7     8   ar
     8     8     9   ar
     9     9     1   ar
    10     9    10    1
    11     8    11    1
    12    11    12   am
    13    12    13    1
    14    13    14    1
    15    13    15    1
    16    13    16    1
    17    16    17    2
    18    17     7    1
    19    17    18    1
    20    18    19   ar
    21    19    20    1
    22    19    21   ar
    23    21    22    1
    24    21    23   ar
    25    23    24    1
    26    23    25   ar
    27    25    26    1
    28    25    27   ar
    29    27    18   ar
    30    27    28    1
    31    12    29    2
    32    11    30    1
    33    30    31    1
    34    30    32    1
    35    30    33    1
