@<TRIPOS>MOLECULE
52
 43 46 0 0 0
SMALL
USER_CHARGES
****
From 3DB ct
@<TRIPOS>ATOM
      1 C           0.2380    2.2040    0.1200 C.ar    1  LIG1       -0.0280
      2 C           0.0490    0.8010    0.1500 C.ar    1  LIG1        0.2747
      3 C           1.1240   -0.2430    0.1470 C.2     1  LIG1       -0.3263
      4 C           2.2400   -0.1080    0.8900 C.2     1  LIG1        0.0854
      5 H           3.0120   -0.8770    0.8730 H       1  LIG1        0.0830
      6 C           2.5540    1.0750    1.7410 C.3     1  LIG1       -0.2423
      7 H           3.5020    0.8880    2.2560 H       1  LIG1        0.1135
      8 H           1.8090    1.1660    2.5430 H       1  LIG1        0.1046
      9 C           2.6170    2.3350    0.9560 C.ar    1  LIG1       -0.0057
     10 N           1.5210    2.8120    0.2580 N.ar    1  LIG1       -0.0147
     11 C           1.9060    4.0380   -0.2400 C.ar    1  LIG1        0.0432
     12 H           1.2440    4.6590   -0.8330 H       1  LIG1        0.1824
     13 N           3.1570    4.3300    0.0360 N.ar    1  LIG1       -0.3523
     14 C           3.6320    3.2720    0.7900 C.ar    1  LIG1       -0.0160
     15 C           5.0140    3.1760    1.2950 C.2     1  LIG1        0.6230
     16 O           5.8610    4.0450    1.0790 O.2     1  LIG1       -0.4375
     17 O           5.3630    2.1040    2.0780 O.3     1  LIG1       -0.3782
     18 C           6.6980    1.9540    2.6010 C.3     1  LIG1        0.2274
     19 H           7.1330    2.9270    2.8470 H       1  LIG1        0.0158
     20 H           7.3120    1.4270    1.8650 H       1  LIG1        0.0133
     21 C           6.6060    1.1130    3.8620 C.3     1  LIG1       -0.1641
     22 H           7.5960    0.9540    4.2980 H       1  LIG1        0.0407
     23 H           6.1550    0.1390    3.6450 H       1  LIG1        0.0525
     24 H           5.9670    1.6020    4.6050 H       1  LIG1        0.0476
     25 C           1.0570   -1.4850   -0.6720 C.ar    1  LIG1        0.1100
     26 C           0.5400   -1.4310   -1.9740 C.ar    1  LIG1       -0.1285
     27 H           0.1990   -0.4850   -2.3930 H       1  LIG1        0.1173
     28 C           0.4600   -2.5880   -2.7520 C.ar    1  LIG1       -0.1210
     29 H           0.0600   -2.5350   -3.7630 H       1  LIG1        0.1113
     30 C           0.8910   -3.8080   -2.2360 C.ar    1  LIG1       -0.0841
     31 H           0.8280   -4.7100   -2.8430 H       1  LIG1        0.1027
     32 C           1.4020   -3.8750   -0.9410 C.ar    1  LIG1       -0.1269
     33 H           1.7360   -4.8290   -0.5350 H       1  LIG1        0.1117
     34 C           1.4840   -2.7200   -0.1600 C.ar    1  LIG1       -0.1110
     35 H           1.8780   -2.7910    0.8520 H       1  LIG1        0.1039
     36 C          -1.2760    0.3180    0.0660 C.ar    1  LIG1       -0.1911
     37 H          -1.4770   -0.7530    0.0930 H       1  LIG1        0.1441
     38 C          -2.3700    1.1760   -0.0680 C.ar    1  LIG1       -0.1092
     39 H          -3.3760    0.7670   -0.1330 H       1  LIG1        0.1171
     40 C          -2.1670    2.5450   -0.1310 C.ar    1  LIG1       -0.0764
     41 H          -3.0150    3.2200   -0.2380 H       1  LIG1        0.1129
     42 C          -0.8740    3.0590   -0.0400 C.ar    1  LIG1       -0.1497
     43 H          -0.7680    4.1420   -0.0530 H       1  LIG1        0.1246
@<TRIPOS>BOND
     1     1     2   ar
     2     2     3    1
     3     3     4    2
     4     4     5    1
     5     4     6    1
     6     6     7    1
     7     6     8    1
     8     6     9    1
     9     9    10   ar
    10    10     1    1
    11    10    11   ar
    12    11    12    1
    13    11    13   ar
    14    13    14   ar
    15    14     9   ar
    16    14    15    1
    17    15    16    2
    18    15    17    1
    19    17    18    1
    20    18    19    1
    21    18    20    1
    22    18    21    1
    23    21    22    1
    24    21    23    1
    25    21    24    1
    26     3    25    1
    27    25    26   ar
    28    26    27    1
    29    26    28   ar
    30    28    29    1
    31    28    30   ar
    32    30    31    1
    33    30    32   ar
    34    32    33    1
    35    32    34   ar
    36    34    35    1
    37    34    25   ar
    38     2    36   ar
    39    36    37    1
    40    36    38   ar
    41    38    39    1
    42    38    40   ar
    43    40    41    1
    44    40    42   ar
    45    42    43    1
    46    42     1   ar
