@<TRIPOS>MOLECULE
64
 50 53 0 0 0
SMALL
USER_CHARGES
****
From 3DB ct
@<TRIPOS>ATOM
      1 C           0.2790    2.0870    0.0020 C.ar    1  LIG1        0.0139
      2 C          -0.0110    0.7430    0.2910 C.ar    1  LIG1        0.0478
      3 C           1.0540   -0.2870    0.2390 C.2     1  LIG1        0.4344
      4 N           2.2040   -0.0910    0.9650 N.am    1  LIG1       -0.3638
      5 C           2.5400    1.0560    1.8030 C.3     1  LIG1        0.2301
      6 H           1.7530    1.1750    2.5570 H       1  LIG1        0.0356
      7 C           2.6230    2.2660    0.9270 C.ar    1  LIG1       -0.1313
      8 N           1.5980    2.6110    0.0470 N.ar    1  LIG1       -0.0924
      9 C           2.0440    3.6940   -0.6700 C.ar    1  LIG1        0.1276
     10 H           1.4930    4.1120   -1.5030 H       1  LIG1        0.1696
     11 N           3.1800    4.1570   -0.2210 N.ar    1  LIG1       -0.3829
     12 C           3.5230    3.3350    0.8390 C.ar    1  LIG1        0.0414
     13 C           4.6540    3.6780    1.7130 C.2     1  LIG1        0.6661
     14 O           5.3430    4.6780    1.5660 O.2     1  LIG1       -0.4398
     15 O           4.8630    2.7260    2.6670 O.3     1  LIG1       -0.5490
     16 C           5.9790    2.8090    3.5870 C.3     1  LIG1        0.6191
     17 C           5.8760    4.0490    4.4810 C.3     1  LIG1       -0.3010
     18 H           6.6270    4.0290    5.2780 H       1  LIG1        0.0628
     19 H           6.0240    4.9740    3.9160 H       1  LIG1        0.0883
     20 H           4.8830    4.1170    4.9380 H       1  LIG1        0.0726
     21 C           5.8490    1.5560    4.4670 C.3     1  LIG1       -0.3649
     22 H           5.8730    0.6470    3.8560 H       1  LIG1        0.0966
     23 H           6.6510    1.4960    5.2100 H       1  LIG1        0.0870
     24 H           4.8870    1.5480    4.9940 H       1  LIG1        0.0860
     25 C           7.3170    2.7470    2.8440 C.3     1  LIG1       -0.3329
     26 H           7.3330    1.9080    2.1390 H       1  LIG1        0.0619
     27 H           7.4990    3.6530    2.2550 H       1  LIG1        0.0915
     28 H           8.1550    2.6350    3.5390 H       1  LIG1        0.0792
     29 C           3.8580    0.6190    2.4620 C.3     1  LIG1        0.0858
     30 H           3.9660    1.0110    3.4780 H       1  LIG1       -0.0089
     31 H           4.7330    0.9200    1.8740 H       1  LIG1        0.0224
     32 C           3.7940   -0.9010    2.4610 C.3     1  LIG1       -0.1756
     33 H           4.7750   -1.3710    2.5680 H       1  LIG1        0.0646
     34 H           3.1500   -1.2490    3.2780 H       1  LIG1        0.0610
     35 C           3.1490   -1.1810    1.1220 C.3     1  LIG1        0.0604
     36 H           3.8750   -1.1150    0.3040 H       1  LIG1        0.0400
     37 H           2.6600   -2.1590    1.0880 H       1  LIG1        0.0647
     38 O           0.8940   -1.2680   -0.4830 O.2     1  LIG1       -0.4084
     39 C          -1.3590    0.3340    0.4170 C.ar    1  LIG1       -0.0734
     40 C          -2.3890    1.2620    0.1980 C.ar    1  LIG1       -0.0837
     41 H          -3.4320    0.9670    0.3120 H       1  LIG1        0.1164
     42 C          -2.0980    2.5720   -0.1650 C.ar    1  LIG1       -0.0907
     43 H          -2.9060    3.2800   -0.3370 H       1  LIG1        0.1220
     44 C          -0.7730    2.9880   -0.2580 C.ar    1  LIG1       -0.1140
     45 H          -0.5910    4.0390   -0.4730 H       1  LIG1        0.1193
     46 S          -1.8650   -1.2990    0.9760 S.3     1  LIG1       -0.0259
     47 C          -3.6720   -1.1880    1.0750 C.3     1  LIG1       -0.1351
     48 H          -4.0740   -2.1660    1.3530 H       1  LIG1        0.0884
     49 H          -3.9700   -0.4620    1.8360 H       1  LIG1        0.0480
     50 H          -4.1000   -0.8960    0.1130 H       1  LIG1        0.0692
@<TRIPOS>BOND
     1     1     2   ar
     2     2     3    1
     3     3     4   am
     4     4     5    1
     5     5     6    1
     6     5     7    1
     7     7     8   ar
     8     8     1    1
     9     8     9   ar
    10     9    10    1
    11     9    11   ar
    12    11    12   ar
    13    12     7   ar
    14    12    13    1
    15    13    14    2
    16    13    15    1
    17    15    16    1
    18    16    17    1
    19    17    18    1
    20    17    19    1
    21    17    20    1
    22    16    21    1
    23    21    22    1
    24    21    23    1
    25    21    24    1
    26    16    25    1
    27    25    26    1
    28    25    27    1
    29    25    28    1
    30     5    29    1
    31    29    30    1
    32    29    31    1
    33    29    32    1
    34    32    33    1
    35    32    34    1
    36    32    35    1
    37    35    36    1
    38    35    37    1
    39    35     4    1
    40     3    38    2
    41     2    39   ar
    42    39    40   ar
    43    40    41    1
    44    40    42   ar
    45    42    43    1
    46    42    44   ar
    47    44    45    1
    48    44     1   ar
    49    39    46    1
    50    46    47    1
    51    47    48    1
    52    47    49    1
    53    47    50    1
