@<TRIPOS>MOLECULE
MOLECULE_18
 77 84 0 0 0
SMALL
GASTEIGER

@<TRIPOS>ATOM
      1 C          -2.2152    2.8234   -6.1158 C.ar    1  LIG111     -0.0547
      2 C           4.8374   13.7772    0.0657 C.3     1  LIG111     -0.0648
      3 C          -1.0566    2.1065   -5.7732 C.ar    1  LIG111     -0.0162
      4 H          -2.4805    2.9582   -7.1592 H       1  LIG111      0.0622
      5 C          -0.6735    1.9279   -4.4358 C.ar    1  LIG111      0.1588
      6 C          -1.5079    2.4511   -3.4456 C.ar    1  LIG111      0.1668
      7 C          -2.6706    3.0965   -3.8069 C.ar    1  LIG111      0.0137
      8 C          -3.0296    3.3742   -5.1188 C.ar    1  LIG111     -0.0411
      9 C          -4.2481    4.2721   -5.3700 C.3     1  LIG111     -0.0368
     10 H           5.7088   14.0259    0.6920 H       1  LIG111      0.0230
     11 H           3.9221   14.0104    0.6318 H       1  LIG111      0.0230
     12 C          -4.9977    4.6940   -4.0532 C.3     1  LIG111     -0.0432
     13 H           4.8646   14.4062   -0.8378 H       1  LIG111      0.0230
     14 C          -4.0238    4.8644   -2.8367 C.3     1  LIG111      0.0720
     15 C          -2.9303    5.9408   -3.1183 C.3     1  LIG111      0.0031
     16 H          -0.4400    1.6828   -6.5591 H       1  LIG111      0.0655
     17 H          -4.9078    3.7678   -6.0867 H       1  LIG111      0.0298
     18 C          -1.8535    5.8426   -2.0487 C.ar    1  LIG111     -0.0128
     19 C          -1.5397    4.6742   -1.3550 C.ar    1  LIG111      0.0622
     20 C          -2.2313    3.3279   -1.5404 C.3     1  LIG111      0.1523
     21 H          -3.8579    5.1693   -5.8763 H       1  LIG111      0.0298
     22 C          -3.4144    3.4628   -2.5601 C.3     1  LIG111      0.0677
     23 C          -4.5131    2.4089   -2.2659 C.3     1  LIG111     -0.0518
     24 H          -5.4336    5.6914   -4.2317 H       1  LIG111      0.0126
     25 H          -3.3690    6.9499   -3.1272 H       1  LIG111      0.0341
     26 C          -5.5958    2.3957   -3.3758 C.3     1  LIG111     -0.0891
     27 H          -2.4058    5.7867   -4.0707 H       1  LIG111      0.0341
     28 H          -2.5657    3.0105   -0.5409 H       1  LIG111      0.0809
     29 N          -6.1010    3.7661   -3.6551 N.4     1  LIG111      0.3839
     30 C          -7.2937    3.7394   -4.5521 C.3     1  LIG111     -0.0872
     31 H          -4.9856    2.6573   -1.3019 H       1  LIG111      0.0258
     32 H          -4.0646    1.4054   -2.1747 H       1  LIG111      0.0258
     33 C          -7.8976    5.1503   -4.7821 C.3     1  LIG111     -0.0559
     34 H          -6.4120    1.7338   -3.0375 H       1  LIG111      0.0059
     35 C          -8.9077    5.2526   -5.9468 C.3     1  LIG111     -0.0517
     36 H          -5.1809    1.9471   -4.2921 H       1  LIG111      0.0059
     37 H          -6.4912    4.1417   -2.7131 H       1  LIG111     -0.0813
     38 C          -7.5056    5.8845   -6.0839 C.3     1  LIG111     -0.0517
     39 H          -8.1039    3.1523   -4.0865 H       1  LIG111      0.0062
     40 H          -7.0673    3.2464   -5.5088 H       1  LIG111      0.0062
     41 O          -1.2655    2.3797   -2.0801 O.3     1  LIG111     -0.4778
     42 N          -0.5361    4.9169   -0.4874 N.ar    1  LIG111     -0.3548
     43 H          -8.1486    5.7814   -3.9143 H       1  LIG111      0.0283
     44 C          -0.2029    6.2170   -0.5949 C.ar    1  LIG111      0.0470
     45 C           0.7719    6.9192    0.1122 C.ar    1  LIG111     -0.0375
     46 H          -9.7442    5.9597   -5.8325 H       1  LIG111      0.0267
     47 C           0.9258    8.2781   -0.1891 C.ar    1  LIG111     -0.0565
     48 H          -9.0959    4.3537   -6.5542 H       1  LIG111      0.0267
     49 C           0.1337    8.9061   -1.1654 C.ar    1  LIG111     -0.0452
     50 C          -0.8404    8.1815   -1.8673 C.ar    1  LIG111     -0.0491
     51 H          -7.4535    6.9831   -6.0339 H       1  LIG111      0.0267
     52 C          -0.9948    6.8304   -1.5581 C.ar    1  LIG111      0.0036
     53 C           0.3391   10.3966   -1.4700 C.3     1  LIG111     -0.0120
     54 H          -6.8125    5.3861   -6.7782 H       1  LIG111      0.0267
     55 H          -0.1048    4.2295    0.1481 H       1  LIG111      0.1657
     56 C           1.4106   10.5543   -2.5788 C.3     1  LIG111      0.0156
     57 H           1.3830    6.4298    0.8631 H       1  LIG111      0.0638
     58 H           1.6773    8.8502    0.3456 H       1  LIG111      0.0621
     59 N           2.6381    9.8520   -2.1951 N.am    1  LIG111     -0.3150
     60 H          -1.4555    8.6481   -2.6288 H       1  LIG111      0.0627
     61 C           3.6493   10.4210   -1.5858 C.2     1  LIG111      0.2130
     62 O           4.6419    9.7663   -1.3052 O.2     1  LIG111     -0.2758
     63 C           3.6530   11.8876   -1.2059 C.3     1  LIG111      0.0237
     64 C           4.8692   12.2749   -0.3196 C.3     1  LIG111     -0.0476
     65 H           0.6532   10.9167   -0.5529 H       1  LIG111      0.0328
     66 H          -0.6094   10.8526   -1.7976 H       1  LIG111      0.0328
     67 O          -4.7513    5.2333   -1.6507 O.3     1  LIG111     -0.3888
     68 H           1.5670   11.6186   -2.8108 H       1  LIG111      0.0465
     69 O           0.5037    1.2483   -4.1175 O.3     1  LIG111     -0.5033
     70 H           1.0208   10.0870   -3.4990 H       1  LIG111      0.0465
     71 H           2.7197    8.8507   -2.4418 H       1  LIG111      0.1487
     72 H           3.6927   12.4915   -2.1261 H       1  LIG111      0.0358
     73 H           2.7353   12.1362   -0.6531 H       1  LIG111      0.0358
     74 H           5.8064   12.0658   -0.8627 H       1  LIG111      0.0267
     75 H           4.8584   11.6676    0.6012 H       1  LIG111      0.0267
     76 H          -5.1880    6.0751   -1.7257 H       1  LIG111      0.2101
     77 H           0.6567    1.1965   -3.1802 H       1  LIG111      0.2923
@<TRIPOS>BOND
     1     4     1    1
     2    54    38    1
     3    16     3    1
     4    48    35    1
     5     1     3   ar
     6     1     8   ar
     7    17     9    1
     8    38    51    1
     9    38    35    1
    10    38    33    1
    11    35    46    1
    12    35    33    1
    13    21     9    1
    14     3     5   ar
    15    40    30    1
    16     9     8    1
    17     9    12    1
    18     8     7   ar
    19    33    30    1
    20    33    43    1
    21    30    39    1
    22    30    29    1
    23     5    69    1
    24     5     6   ar
    25    36    26    1
    26    24    12    1
    27    69    77    1
    28    27    15    1
    29    12    29    1
    30    12    14    1
    31     7     6   ar
    32     7    22    1
    33    29    26    1
    34    29    37    1
    35    70    56    1
    36     6    41    1
    37    26    34    1
    38    26    23    1
    39    25    15    1
    40    15    14    1
    41    15    18    1
    42    14    22    1
    43    14    67    1
    44    68    56    1
    45    60    50    1
    46    56    59    1
    47    56    53    1
    48    22    23    1
    49    22    20    1
    50    71    59    1
    51    23    32    1
    52    23    31    1
    53    59    61   am
    54    72    63    1
    55    41    20    1
    56    18    52   ar
    57    18    19   ar
    58    50    52   ar
    59    50    49   ar
    60    66    53    1
    61    76    67    1
    62    61    62    2
    63    61    63    1
    64    52    44   ar
    65    20    19    1
    66    20    28    1
    67    53    49    1
    68    53    65    1
    69    19    42   ar
    70    63    73    1
    71    63    64    1
    72    49    47   ar
    73    74    64    1
    74    13     2    1
    75    44    42   ar
    76    44    45   ar
    77    42    55    1
    78    64     2    1
    79    64    75    1
    80    47    45   ar
    81    47    58    1
    82     2    11    1
    83     2    10    1
    84    45    57    1
