@<TRIPOS>MOLECULE
MOLECULE_13
 90 97 0 0 0
SMALL
GASTEIGER

@<TRIPOS>ATOM
      1 C          -2.2155    2.8245   -6.1151 C.ar    1  LIG111     -0.0547
      2 C           0.3152   13.0458   -1.5719 C.3     1  LIG111     -0.0009
      3 C          -1.0577    2.1060   -5.7733 C.ar    1  LIG111     -0.0162
      4 H          -2.4810    2.9600   -7.1584 H       1  LIG111      0.0622
      5 C          -0.6748    1.9259   -4.4361 C.ar    1  LIG111      0.1588
      6 C          -1.5076    2.4510   -3.4455 C.ar    1  LIG111      0.1668
      7 C          -2.6704    3.0967   -3.8059 C.ar    1  LIG111      0.0137
      8 C          -3.0290    3.3758   -5.1177 C.ar    1  LIG111     -0.0411
      9 C          -4.2462    4.2752   -5.3683 C.3     1  LIG111     -0.0368
     10 C           0.7131   14.5263   -1.8299 C.3     1  LIG111     -0.0406
     11 H          -0.4417    1.6823   -6.5596 H       1  LIG111      0.0655
     12 C          -4.9981    4.6939   -4.0518 C.3     1  LIG111     -0.0432
     13 H          -4.9046    3.7733   -6.0878 H       1  LIG111      0.0298
     14 C          -4.0270    4.8620   -2.8330 C.3     1  LIG111      0.0720
     15 C          -2.9358    5.9414   -3.1093 C.3     1  LIG111      0.0031
     16 H          -3.8540    5.1735   -5.8711 H       1  LIG111      0.0298
     17 H          -5.4339    5.6916   -4.2288 H       1  LIG111      0.0126
     18 C          -1.8665    5.8454   -2.0322 C.ar    1  LIG111     -0.0127
     19 C          -1.5453    4.6743   -1.3465 C.ar    1  LIG111      0.0622
     20 C          -2.2312    3.3259   -1.5395 C.3     1  LIG111      0.1523
     21 H          -3.3775    6.9491   -3.1214 H       1  LIG111      0.0341
     22 C          -3.4149    3.4610   -2.5590 C.3     1  LIG111      0.0677
     23 C          -4.5136    2.4063   -2.2674 C.3     1  LIG111     -0.0518
     24 H          -2.4053    5.7878   -4.0585 H       1  LIG111      0.0341
     25 H          -2.5661    3.0041   -0.5416 H       1  LIG111      0.0809
     26 C          -5.5960    2.3946   -3.3779 C.3     1  LIG111     -0.0891
     27 H          -4.9866    2.6532   -1.3032 H       1  LIG111      0.0258
     28 H          -4.0648    1.4030   -2.1773 H       1  LIG111      0.0258
     29 N          -6.1017    3.7649   -3.6573 N.4     1  LIG111      0.3839
     30 C          -7.2922    3.7394   -4.5575 C.3     1  LIG111     -0.0872
     31 H          -6.4126    1.7325   -3.0409 H       1  LIG111      0.0059
     32 H          -5.1805    1.9467   -4.2944 H       1  LIG111      0.0059
     33 C          -7.8949    5.1507   -4.7894 C.3     1  LIG111     -0.0559
     34 H          -6.4945    4.1392   -2.7159 H       1  LIG111     -0.0813
     35 C          -8.9003    5.2538   -5.9582 C.3     1  LIG111     -0.0517
     36 H          -8.1039    3.1527   -4.0941 H       1  LIG111      0.0062
     37 H          -7.0634    3.2463   -5.5136 H       1  LIG111      0.0062
     38 C          -7.4977    5.8857   -6.0891 C.3     1  LIG111     -0.0517
     39 H          -8.1486    5.7817   -3.9224 H       1  LIG111      0.0283
     40 H          -9.7365    5.9621   -5.8492 H       1  LIG111      0.0267
     41 O          -1.2632    2.3807   -2.0804 O.3     1  LIG111     -0.4778
     42 N          -0.5431    4.9178   -0.4772 N.ar    1  LIG111     -0.3548
     43 H          -9.0855    4.3561   -6.5682 H       1  LIG111      0.0267
     44 C          -0.2245    6.2229   -0.5686 C.ar    1  LIG111      0.0471
     45 C           0.7409    6.9282    0.1491 C.ar    1  LIG111     -0.0360
     46 H          -7.4468    6.9845   -6.0392 H       1  LIG111      0.0267
     47 C           0.8696    8.2954   -0.1257 C.ar    1  LIG111     -0.0388
     48 H          -6.8027    5.3881   -6.7821 H       1  LIG111      0.0267
     49 C           0.0684    8.9221   -1.0945 C.ar    1  LIG111      0.0302
     50 C          -0.8903    8.1960   -1.8131 C.ar    1  LIG111     -0.0313
     51 H          -0.1068    4.2286    0.1527 H       1  LIG111      0.1657
     52 C          -1.0236    6.8380   -1.5253 C.ar    1  LIG111      0.0050
     53 N           0.2071   10.2488   -1.3303 N.pl3   1  LIG111     -0.3101
     54 H           1.3626    6.4355    0.8890 H       1  LIG111      0.0639
     55 C           1.2719   10.7923   -1.8952 C.3     1  LIG111      0.1895
     56 N           1.3460   12.1063   -2.0293 N.3     1  LIG111     -0.2796
     57 H           1.6015    8.8816    0.4210 H       1  LIG111      0.0637
     58 C          -0.3853   15.5085   -1.3371 C.3     1  LIG111     -0.0548
     59 H          -1.5070    8.6728   -2.5668 H       1  LIG111      0.0643
     60 H          -0.5877   10.8254   -1.0317 H       1  LIG111      0.1492
     61 C           0.0173   16.9832   -1.5978 C.3     1  LIG111     -0.0652
     62 C           3.4938   10.4598   -2.9519 C.3     1  LIG111     -0.0009
     63 H           2.1668   12.5312   -2.4719 H       1  LIG111      0.1253
     64 C           4.4895   10.9650   -1.8712 C.3     1  LIG111     -0.0406
     65 C           5.8234   11.4423   -2.5072 C.3     1  LIG111     -0.0548
     66 C           6.8222   11.9300   -1.4257 C.3     1  LIG111     -0.0652
     67 H          -0.6276   12.8586   -2.1121 H       1  LIG111      0.0425
     68 H           0.1602   12.9324   -0.4860 H       1  LIG111      0.0425
     69 H           0.8754   14.6740   -2.9106 H       1  LIG111      0.0277
     70 H           1.6582   14.7428   -1.3048 H       1  LIG111      0.0277
     71 H          -0.5500   15.3671   -0.2559 H       1  LIG111      0.0263
     72 H          -1.3326   15.2972   -1.8607 H       1  LIG111      0.0263
     73 N           2.2468   10.0040   -2.3222 N.3     1  LIG111     -0.2796
     74 H          -0.7747   17.6608   -1.2412 H       1  LIG111      0.0230
     75 O          -4.7573    5.2265   -1.6474 O.3     1  LIG111     -0.3888
     76 H           2.1449    8.9817   -2.2445 H       1  LIG111      0.1253
     77 O           0.5003    1.2425   -4.1183 O.3     1  LIG111     -0.5033
     78 H           0.1671   17.1554   -2.6750 H       1  LIG111      0.0230
     79 H          -5.1954    6.0678   -1.7208 H       1  LIG111      0.2101
     80 H           0.6512    1.1861   -3.1809 H       1  LIG111      0.2923
     81 H           0.9511   17.2258   -1.0671 H       1  LIG111      0.0230
     82 H           3.9731    9.5944   -3.4425 H       1  LIG111      0.0425
     83 H           3.3283   11.1863   -3.7620 H       1  LIG111      0.0425
     84 H           4.6908   10.1396   -1.1683 H       1  LIG111      0.0277
     85 H           4.0505   11.7923   -1.2934 H       1  LIG111      0.0277
     86 H           5.6199   12.2684   -3.2089 H       1  LIG111      0.0263
     87 H           6.2822   10.6141   -3.0725 H       1  LIG111      0.0263
     88 H           7.7601   12.2619   -1.8983 H       1  LIG111      0.0230
     89 H           7.0537   11.1152   -0.7220 H       1  LIG111      0.0230
     90 H           6.3963   12.7744   -0.8616 H       1  LIG111      0.0230
@<TRIPOS>BOND
     1     4     1    1
     2    48    38    1
     3    43    35    1
     4    11     3    1
     5     1     3   ar
     6     1     8   ar
     7    38    46    1
     8    38    35    1
     9    38    33    1
    10    13     9    1
    11    35    40    1
    12    35    33    1
    13    16     9    1
    14     3     5   ar
    15    37    30    1
    16     9     8    1
    17     9    12    1
    18     8     7   ar
    19    33    30    1
    20    33    39    1
    21    30    36    1
    22    30    29    1
    23     5    77    1
    24     5     6   ar
    25    32    26    1
    26    17    12    1
    27    77    80    1
    28    24    15    1
    29    12    29    1
    30    12    14    1
    31     7     6   ar
    32     7    22    1
    33    83    62    1
    34    29    26    1
    35    29    34    1
    36     6    41    1
    37    82    62    1
    38    26    31    1
    39    26    23    1
    40    86    65    1
    41    21    15    1
    42    15    14    1
    43    15    18    1
    44    87    65    1
    45    62    73    1
    46    62    64    1
    47    69    10    1
    48    14    22    1
    49    14    75    1
    50    78    61    1
    51    59    50    1
    52    22    23    1
    53    22    20    1
    54    65    64    1
    55    65    66    1
    56    63    56    1
    57    73    76    1
    58    73    55    1
    59    23    28    1
    60    23    27    1
    61    67     2    1
    62    41    20    1
    63    18    52   ar
    64    18    19   ar
    65    56    55    1
    66    56     2    1
    67    88    66    1
    68    55    53    1
    69    64    85    1
    70    64    84    1
    71    72    58    1
    72    10     2    1
    73    10    58    1
    74    10    70    1
    75    50    52   ar
    76    50    49   ar
    77    79    75    1
    78    61    58    1
    79    61    74    1
    80    61    81    1
    81     2    68    1
    82    20    19    1
    83    20    25    1
    84    52    44   ar
    85    66    90    1
    86    66    89    1
    87    19    42   ar
    88    58    71    1
    89    53    49    1
    90    53    60    1
    91    49    47   ar
    92    44    42   ar
    93    44    45   ar
    94    42    51    1
    95    47    45   ar
    96    47    57    1
    97    45    54    1
