#	Name:			mol24
#	Creating user name:	becker
#	Creation time:		Wed Apr 19 13:40:35 2006

#	Modifying user name:	becker
#	Modification time:	Wed Apr 19 13:40:35 2006

@<TRIPOS>MOLECULE
mol24
   46    49     1     0     0
SMALL
NO_CHARGES


@<TRIPOS>ATOM
      1 C           0.605000   -3.528000    0.483000 C.ar      1 <1>         0.000000 
      2 H           0.373000   -4.568000    0.276000 H         1 <1>         0.000000 
      3 C           1.704000   -3.201000    1.279000 C.ar      1 <1>         0.000000 
      4 C           2.002000   -1.861000    1.531000 C.ar      1 <1>         0.000000 
      5 H           2.867000   -1.621000    2.142000 H         1 <1>         0.000000 
      6 C           1.205000   -0.835000    1.007000 C.ar      1 <1>         0.000000 
      7 C           0.082000   -1.165000    0.231000 C.ar      1 <1>         0.000000 
      8 C          -0.192000   -2.510000   -0.047000 C.ar      1 <1>         0.000000 
      9 H          -1.030000   -2.777000   -0.684000 H         1 <1>         0.000000 
     10 N          -0.750000   -0.208000   -0.249000 N.pl3     1 <1>         0.000000 
     11 C          -2.047000   -0.270000   -0.252000 C.ar      1 <1>         0.000000 
     12 H          -2.666000   -1.083000    0.127000 H         1 <1>         0.000000 
     13 N          -2.516000    0.777000   -0.762000 N.ar      1 <1>         0.000000 
     14 C          -1.448000    1.656000   -1.151000 C.ar      1 <1>         0.000000 
     15 C          -0.372000    0.929000   -0.789000 C.ar      1 <1>         0.000000 
     16 C           1.079000    1.280000   -0.933000 C.3       1 <1>         0.000000 
     17 H           1.226000    2.120000   -1.625000 H         1 <1>         0.000000 
     18 H           1.639000    0.428000   -1.349000 H         1 <1>         0.000000 
     19 N           1.531000    1.591000    0.417000 N.am      1 <1>         0.000000 
     20 C           1.608000    0.591000    1.332000 C.2       1 <1>         0.000000 
     21 O           2.022000    0.799000    2.462000 O.2       1 <1>         0.000000 
     22 C           1.904000    2.943000    0.834000 C.3       1 <1>         0.000000 
     23 H           1.740000    3.685000    0.037000 H         1 <1>         0.000000 
     24 H           1.276000    3.236000    1.690000 H         1 <1>         0.000000 
     25 C           3.393000    2.989000    1.202000 C.ar      1 <1>         0.000000 
     26 C           4.320000    2.259000    0.449000 C.ar      1 <1>         0.000000 
     27 H           3.994000    1.685000   -0.412000 H         1 <1>         0.000000 
     28 C           5.674000    2.263000    0.798000 C.ar      1 <1>         0.000000 
     29 H           6.387000    1.686000    0.216000 H         1 <1>         0.000000 
     30 C           6.111000    3.011000    1.895000 C.ar      1 <1>         0.000000 
     31 H           7.162000    3.011000    2.169000 H         1 <1>         0.000000 
     32 C           5.192000    3.758000    2.638000 C.ar      1 <1>         0.000000 
     33 H           5.531000    4.344000    3.487000 H         1 <1>         0.000000 
     34 C           3.838000    3.750000    2.289000 C.ar      1 <1>         0.000000 
     35 H           3.135000    4.339000    2.870000 H         1 <1>         0.000000 
     36 C          -1.612000    2.984000   -1.765000 C.2       1 <1>         0.000000 
     37 O          -2.738000    3.328000   -2.092000 O.2       1 <1>         0.000000 
     38 O          -0.542000    3.772000   -1.938000 O.3       1 <1>         0.000000 
     39 C          -0.828000    5.056000   -2.526000 C.3       1 <1>         0.000000 
     40 H          -1.528000    5.628000   -1.893000 H         1 <1>         0.000000 
     41 H          -1.263000    4.935000   -3.533000 H         1 <1>         0.000000 
     42 C           0.503000    5.838000   -2.639000 C.3       1 <1>         0.000000 
     43 H           0.948000    5.969000   -1.640000 H         1 <1>         0.000000 
     44 H           0.330000    6.831000   -3.085000 H         1 <1>         0.000000 
     45 H           1.213000    5.283000   -3.272000 H         1 <1>         0.000000 
     46 Cl          2.705000   -4.469000    1.958000 Cl        1 <1>         0.000000 
@<TRIPOS>BOND
     1    2    1 1    
     2    1    3 ar   
     3    3    4 ar   
     4    4    5 1    
     5    4    6 ar   
     6    6    7 ar   
     7    7    8 ar   
     8    8    9 1    
     9    8    1 ar   
    10    7   10 1    
    11   10   11 ar   
    12   11   12 1    
    13   11   13 ar   
    14   13   14 ar   
    15   14   15 ar   
    16   15   10 ar   
    17   15   16 1    
    18   16   17 1    
    19   16   18 1    
    20   16   19 1    
    21   19   20 am   
    22   20    6 1    
    23   20   21 2    
    24   19   22 1    
    25   22   23 1    
    26   22   24 1    
    27   22   25 1    
    28   25   26 ar   
    29   26   27 1    
    30   26   28 ar   
    31   28   29 1    
    32   28   30 ar   
    33   30   31 1    
    34   30   32 ar   
    35   32   33 1    
    36   32   34 ar   
    37   34   35 1    
    38   34   25 ar   
    39   14   36 1    
    40   36   37 2    
    41   36   38 1    
    42   38   39 1    
    43   39   40 1    
    44   39   41 1    
    45   39   42 1    
    46   42   43 1    
    47   42   44 1    
    48   42   45 1    
    49    3   46 1    
@<TRIPOS>SUBSTRUCTURE
     1 ****        2 TEMP              0 ****  ****    0 ROOT 
