#	Name:			ro21_8303
#	Creating user name:	becker
#	Creation time:		Wed Apr 19 13:40:35 2006

#	Modifying user name:	becker
#	Modification time:	Wed Apr 19 13:40:35 2006

@<TRIPOS>MOLECULE
ro21_8303
   42    45     1     0     0
SMALL
NO_CHARGES


@<TRIPOS>ATOM
      1 C           1.128000   -3.505000   -1.099000 C.ar      1 <1>         0.000000 
      2 H           0.821000   -4.507000   -1.380000 H         1 <1>         0.000000 
      3 C           2.483000   -3.205000   -0.951000 C.ar      1 <1>         0.000000 
      4 C           2.869000   -1.916000   -0.577000 C.ar      1 <1>         0.000000 
      5 H           3.926000   -1.688000   -0.492000 H         1 <1>         0.000000 
      6 C           1.913000   -0.927000   -0.314000 C.ar      1 <1>         0.000000 
      7 C           0.553000   -1.221000   -0.493000 C.ar      1 <1>         0.000000 
      8 C           0.171000   -2.509000   -0.888000 C.ar      1 <1>         0.000000 
      9 H          -0.876000   -2.749000   -1.045000 H         1 <1>         0.000000 
     10 N          -0.390000   -0.269000   -0.292000 N.pl3     1 <1>         0.000000 
     11 C          -1.558000   -0.447000    0.248000 C.ar      1 <1>         0.000000 
     12 H          -1.972000   -1.376000    0.639000 H         1 <1>         0.000000 
     13 N          -2.177000    0.644000    0.271000 N.ar      1 <1>         0.000000 
     14 C          -1.369000    1.684000   -0.304000 C.ar      1 <1>         0.000000 
     15 C          -0.258000    0.992000   -0.629000 C.ar      1 <1>         0.000000 
     16 C           1.007000    1.479000   -1.279000 C.3       1 <1>         0.000000 
     17 H           0.884000    2.498000   -1.668000 H         1 <1>         0.000000 
     18 H           1.297000    0.844000   -2.133000 H         1 <1>         0.000000 
     19 N           2.016000    1.554000   -0.247000 N.2       1 <1>         0.000000 
     20 C           2.424000    0.417000    0.176000 C.2       1 <1>         0.000000 
     21 C           3.499000    0.411000    1.243000 C.ar      1 <1>         0.000000 
     22 C           4.464000    1.426000    1.313000 C.ar      1 <1>         0.000000 
     23 C           5.433000    1.405000    2.320000 C.ar      1 <1>         0.000000 
     24 H           6.166000    2.204000    2.380000 H         1 <1>         0.000000 
     25 C           5.467000    0.362000    3.248000 C.ar      1 <1>         0.000000 
     26 H           6.228000    0.344000    4.022000 H         1 <1>         0.000000 
     27 C           4.516000   -0.659000    3.175000 C.ar      1 <1>         0.000000 
     28 H           4.543000   -1.477000    3.888000 H         1 <1>         0.000000 
     29 C           3.531000   -0.626000    2.184000 C.ar      1 <1>         0.000000 
     30 H           2.785000   -1.413000    2.160000 H         1 <1>         0.000000 
     31 Cl          4.494000    2.734000    0.145000 Cl        1 <1>         0.000000 
     32 C          -1.772000    3.094000   -0.437000 C.2       1 <1>         0.000000 
     33 O          -2.895000    3.403000   -0.070000 O.2       1 <1>         0.000000 
     34 O          -0.911000    3.989000   -0.944000 O.3       1 <1>         0.000000 
     35 C          -1.420000    5.336000   -1.020000 C.3       1 <1>         0.000000 
     36 H          -1.681000    5.711000   -0.016000 H         1 <1>         0.000000 
     37 H          -2.313000    5.378000   -1.667000 H         1 <1>         0.000000 
     38 C          -0.317000    6.237000   -1.625000 C.3       1 <1>         0.000000 
     39 H          -0.667000    7.278000   -1.701000 H         1 <1>         0.000000 
     40 H          -0.048000    5.878000   -2.631000 H         1 <1>         0.000000 
     41 H           0.582000    6.209000   -0.989000 H         1 <1>         0.000000 
     42 Cl          3.693000   -4.439000   -1.233000 Cl        1 <1>         0.000000 
@<TRIPOS>BOND
     1    2    1 1    
     2    1    3 ar   
     3    3    4 ar   
     4    4    5 1    
     5    4    6 ar   
     6    6    7 ar   
     7    7    8 ar   
     8    8    9 1    
     9    8    1 ar   
    10    7   10 1    
    11   10   11 ar   
    12   11   12 1    
    13   11   13 ar   
    14   13   14 ar   
    15   14   15 ar   
    16   15   10 ar   
    17   15   16 1    
    18   16   17 1    
    19   16   18 1    
    20   16   19 1    
    21   19   20 2    
    22   20    6 1    
    23   20   21 1    
    24   21   22 ar   
    25   22   23 ar   
    26   23   24 1    
    27   23   25 ar   
    28   25   26 1    
    29   25   27 ar   
    30   27   28 1    
    31   27   29 ar   
    32   29   30 1    
    33   29   21 ar   
    34   22   31 1    
    35   14   32 1    
    36   32   33 2    
    37   32   34 1    
    38   34   35 1    
    39   35   36 1    
    40   35   37 1    
    41   35   38 1    
    42   38   39 1    
    43   38   40 1    
    44   38   41 1    
    45    3   42 1    
@<TRIPOS>SUBSTRUCTURE
     1 ****        2 TEMP              0 ****  ****    0 ROOT 
