@<TRIPOS>MOLECULE
CPD_08-b
 65 68 0 0 0
SMALL
GASTEIGER

@<TRIPOS>ATOM
      1 C1          4.5941   -7.8708   13.8584 C.ar    1  TOS111     -0.1209
      2 C2          6.1253   -5.8186   14.9485 C.ar    1  TOS111     -0.1118
      3 ****        9.8635   -7.9242   13.3760 H       1  TOS111      0.1459
      4 ****        8.5437   -9.8081   12.4904 H       1  TOS111      0.1536
      5 ****        3.9692   -6.8177   14.5326 C.ar    1  TOS111     -0.0922
      6 ****        4.7354   -5.7918   15.0873 C.ar    1  TOS111     -0.1285
      7 ****        3.9567   -8.6238   13.4143 H       1  TOS111      0.1383
      8 ****        6.8090   -9.2288   10.3515 H       2  APM222      0.1211
      9 ****        5.2916  -10.4129    8.6311 H       2  APM222      0.1175
     10 ****        6.1431   -8.9975    8.0009 H       2  APM222      0.1108
     11 ****        2.8223  -10.3650    8.6667 H       2  APM222      0.1338
     12 ****        5.0044   -6.7712    7.7671 H       2  APM222      0.1633
     13 ****        2.8968   -5.6320    7.1791 H       2  APM222      0.1645
     14 ****        0.7486   -6.8487    7.3038 H       2  APM222      0.1340
     15 ****        3.9947   -9.7988   11.0112 H       2  APM222      0.2306
     16 ****       -1.5728   -9.5023    7.2315 H       2  APM222      0.2724
     17 ****       -0.5575   -8.1623    6.6713 H       2  APM222      0.2970
     18 ****        1.0057  -10.8916    9.2445 H       2  APM222      0.2984
     19 ****       -0.6638  -11.0896    8.6821 H       2  APM222      0.2731
     20 ****        7.4628   -6.1603    8.3340 H       3  PIP333      0.0776
     21 ****        7.8054   -7.7291    9.0457 H       3  PIP333      0.0962
     22 ****        9.6612   -6.1783    9.4635 H       3  PIP333      0.0955
     23 ****        8.9031   -6.7042   10.9866 H       3  PIP333      0.0943
     24 ****        8.3940   -4.0496    9.5188 H       3  PIP333      0.0889
     25 C25         9.6408   -4.0870   11.2970 C.3     3  PIP333     -0.2073
     26 ****        6.9439   -3.4122   11.4331 H       3  PIP333      0.0959
     27 ****        7.2173   -4.9915   12.2029 H       3  PIP333      0.0975
     28 ****        5.0641   -4.9909   11.0402 H       3  PIP333      0.1279
     29 ****        5.8177   -4.5115    9.5155 H       3  PIP333      0.0716
     30 S           5.7653  -10.4493   12.5138 S.O2    1  TOS111      2.6278
     31 O1          6.7188  -11.4251   12.0232 O.2     1  TOS111     -0.8753
     32 O2          4.7654  -10.8778   13.4725 O.2     1  TOS111     -0.8638
     33 C1          6.6413   -9.0225   13.1476 C.ar    1  TOS111     -0.7191
     34 C2          5.9896   -7.9364   13.7582 C.ar    1  TOS111      0.0627
     35 C3          6.7509   -6.8805   14.2822 C.ar    1  TOS111     -0.0565
     36 C4          8.1424   -6.8761   14.1433 C.ar    1  TOS111     -0.0437
     37 C5          8.7846   -7.9332   13.4933 C.ar    1  TOS111     -0.1697
     38 C6          8.0322   -8.9971   12.9972 C.ar    1  TOS111     -0.0219
     39 ****        6.7099   -5.0050   15.3651 H       1  TOS111      0.1383
     40 C           5.5183   -7.4795   10.4657 C.2     2  APM222      0.2766
     41 CA          5.7607   -8.9449   10.1722 C.3     2  APM222      0.0463
     42 CB          5.3687   -9.3165    8.7144 C.3     2  APM222     -0.1265
     43 CG          4.0531   -8.6402    8.2943 C.ar    2  APM222     -0.0523
     44 CD1         2.8378   -9.3296    8.3404 C.ar    2  APM222     -0.0761
     45 CD2         4.0691   -7.3133    7.8481 C.ar    2  APM222     -0.0555
     46 CE1         1.6458   -8.7048    7.9562 C.ar    2  APM222     -0.1499
     47 CE2         2.8802   -6.6692    7.4984 C.ar    2  APM222     -0.1041
     48 CZ          1.6683   -7.3631    7.5604 C.ar    2  APM222     -0.0867
     49 CF          0.3330   -9.4646    7.9588 C.3     2  APM222      0.3308
     50 O           4.4959   -7.2624   11.0881 O.2     2  APM222     -0.3673
     51 N           4.9868   -9.7282   11.1308 N.3     2  APM222     -0.8358
     52 NG1        -0.6663   -9.0118    7.2447 N.3     2  APM222     -0.3268
     53 NG2         0.2182  -10.5559    8.6709 N.3     2  APM222     -0.3230
     54 N1          6.3370   -6.4656   10.0756 N.am    3  PIP333     -0.3293
     55 C2          7.5480   -6.6933    9.2917 C.3     3  PIP333     -0.0201
     56 C3          8.7452   -6.1062   10.0774 C.3     3  PIP333     -0.1770
     57 C4          8.4702   -4.6306   10.4474 C.3     3  PIP333     -0.1050
     58 C5          7.1470   -4.4790   11.2329 C.3     3  PIP333     -0.1770
     59 C6          5.9743   -5.0949   10.4327 C.3     3  PIP333     -0.0132
     60 ****       10.5968   -4.2282   10.7758 H       3  PIP333      0.0807
     61 ****        9.6837   -4.6194   12.2543 H       3  PIP333      0.0727
     62 ****        9.5024   -3.0164   11.4964 H       3  PIP333      0.0817
     63 ****        2.8878   -6.7945   14.6247 H       1  TOS111      0.1371
     64 ****        4.2555   -4.9784   15.6215 H       1  TOS111      0.1402
     65 ****        8.7390   -6.0577   14.5333 H       1  TOS111      0.1422
@<TRIPOS>BOND
     1    34     1   ar
     2     2    35   ar
     3    37     3    1
     4    38     4    1
     5     1     5   ar
     6     6     2   ar
     7     5     6   ar
     8    41     8    1
     9    42     9    1
    10    42    10    1
    11    44    11    1
    12    45    12    1
    13    47    13    1
    14    48    14    1
    15    51    15    1
    16    52    16    1
    17    52    17    1
    18    53    18    1
    19    53    19    1
    20    55    20    1
    21    55    21    1
    22    56    22    1
    23    56    23    1
    24    57    24    1
    25    57    25    1
    26    58    26    1
    27    58    27    1
    28    59    28    1
    29    59    29    1
    30    30    33    1
    31    30    32    2
    32    30    31    2
    33    33    38   ar
    34    33    34   ar
    35    34    35   ar
    36    35    36   ar
    37     1     7    1
    38    36    37   ar
    39    37    38   ar
    40    40    50    2
    41    40    41    1
    42    41    51    1
    43    41    42    1
    44    42    43    1
    45    43    45   ar
    46    43    44   ar
    47    44    46   ar
    48    46    49    1
    49    46    48   ar
    50    48    47   ar
    51    47    45   ar
    52    49    53    1
    53    49    52    1
    54    59    54    1
    55    54    55    1
    56    55    56    1
    57    56    57    1
    58    57    58    1
    59    58    59    1
    60    40    54   am
    61    51    30    1
    62    25    60    1
    63    25    61    1
    64    25    62    1
    65     2    39    1
    66     5    63    1
    67     6    64    1
    68    36    65    1
