@<TRIPOS>MOLECULE
CPD_28-b
 57 59 0 0 0
SMALL
GASTEIGER

@<TRIPOS>ATOM
      1 C1          3.8944   -6.3679   15.2707 C.ar    4  NAPHTHALENE44   -0.1058
      2 C2          4.0700   -5.1540   15.9425 C.ar    4  NAPHTHALENE44   -0.1277
      3 C3          5.3420   -4.5831   16.0289 C.ar    4  NAPHTHALENE44   -0.0984
      4 C4          6.4356   -5.2307   15.4491 C.ar    4  NAPHTHALENE44   -0.1344
      5 ****        6.7856   -9.1845   10.3654 H       2  APM222      0.1415
      6 ****        5.3375  -10.5061    8.5786 H       2  APM222      0.1202
      7 ****        6.2362   -9.0707    8.0539 H       2  APM222      0.1187
      8 ****        2.8418  -10.4328    8.4959 H       2  APM222      0.1325
      9 ****        5.1529   -6.9127    7.6545 H       2  APM222      0.1619
     10 ****        3.0878   -5.6907    7.0615 H       2  APM222      0.1635
     11 ****        0.8913   -6.7929    7.2776 H       2  APM222      0.1329
     12 ****        4.0209  -10.1372   10.9024 H       2  APM222      0.2292
     13 ****       -1.5483   -9.3520    7.1074 H       2  APM222      0.2723
     14 ****       -0.4813   -8.0472    6.5672 H       2  APM222      0.2963
     15 ****        0.9540  -10.9061    9.0762 H       2  APM222      0.2971
     16 ****       -0.7186  -11.0040    8.5031 H       2  APM222      0.2727
     17 ****        6.1924   -6.7538   10.7536 O.3     2  APM222     -0.2322
     18 C1          5.7833   -5.4546   11.2603 C.3     3  BENZYL33    0.0222
     19 C19         4.2981   -4.9999   11.1610 C.3     3  BENZYL33   -0.2164
     20 ****        4.2262   -3.9440   11.4596 H       3  BENZYL33    0.0871
     21 ****        3.6524   -5.5551   11.8588 H       3  BENZYL33    0.0983
     22 ****        3.9143   -5.1065   10.1337 H       3  BENZYL33    0.0782
     23 ****        6.4612   -3.4133   10.7647 H       3  BENZYL33    0.0960
     24 ****        6.4718   -4.5713    9.4011 H       3  BENZYL33    0.0750
     25 ****        6.0579   -5.3868   12.3253 H       3  BENZYL33    0.1120
     26 C21         6.6698   -4.4549   10.4776 C.3     3  BENZYL33   -0.2223
     27 S           5.6839  -10.4625   12.6342 S.O2    1  TOS111      2.6171
     28 O1          6.9803  -11.0610   12.3830 O.2     1  TOS111     -0.8530
     29 O2          4.6777  -11.2202   13.3518 O.2     1  TOS111     -0.8616
     30 C5          7.3561   -7.1007   14.1961 C.ar    4  NAPHTHALENE44   -0.1262
     31 C6          7.1806   -8.3142   13.5260 C.ar    4  NAPHTHALENE44   -0.0546
     32 C7          5.9128   -8.8995   13.4544 C.ar    4  NAPHTHALENE44   -0.7332
     33 C8          4.8174   -8.2355   14.0104 C.ar    4  NAPHTHALENE44    0.0101
     34 C9          4.9865   -7.0193   14.6870 C.ar    4  NAPHTHALENE44   -0.0607
     35 C10         6.2637   -6.4495   14.7800 C.ar    4  NAPHTHALENE44    0.0032
     36 H1          2.8988   -6.7971   15.2100 H       4  NAPHTHALENE44    0.1374
     37 C           5.2437   -7.6835   10.5622 C.2     2  APM222      0.2834
     38 CA          5.7058   -9.0645   10.1829 C.3     2  APM222      0.0537
     39 CB          5.4074   -9.4132    8.6948 C.3     2  APM222     -0.1195
     40 CG          4.1209   -8.7304    8.2022 C.ar    2  APM222     -0.0521
     41 CD1         2.8843   -9.3883    8.2082 C.ar    2  APM222     -0.0678
     42 CD2         4.1932   -7.4120    7.7403 C.ar    2  APM222     -0.0571
     43 CE1         1.7116   -8.7136    7.8404 C.ar    2  APM222     -0.1468
     44 CE2         3.0294   -6.7228    7.3937 C.ar    2  APM222     -0.1038
     45 CZ          1.7917   -7.3624    7.4822 C.ar    2  APM222     -0.0855
     46 CF          0.3634   -9.4122    7.8242 C.3     2  APM222      0.3335
     47 O           4.0415   -7.5132   10.6667 O.2     2  APM222     -0.3681
     48 N           4.9827   -9.9384   11.0939 N.3     2  APM222     -0.8366
     49 NG1        -0.6203   -8.9020    7.1252 N.3     2  APM222     -0.3284
     50 NG2         0.1896  -10.5147    8.5082 N.3     2  APM222     -0.3246
     51 ****        7.7342   -4.6623   10.6659 H       3  BENZYL33    0.0934
     52 H2          3.2199   -4.6547   16.3971 H       4  NAPHTHALENE44    0.1429
     53 H3          5.4795   -3.6379   16.5460 H       4  NAPHTHALENE44    0.1446
     54 H4          7.4188   -4.7760   15.5231 H       4  NAPHTHALENE44    0.1442
     55 H5          8.3506   -6.6684   14.2563 H       4  NAPHTHALENE44    0.1472
     56 H6          8.0322   -8.8008   13.0636 H       4  NAPHTHALENE44    0.1554
     57 H8          3.8312   -8.6767   13.9133 H       4  NAPHTHALENE44    0.1431
@<TRIPOS>BOND
     1    27    32    1
     2    30    31   ar
     3    30    35   ar
     4    30    55    1
     5    35     4   ar
     6    35    34   ar
     7    34     1   ar
     8    38     5    1
     9    39     6    1
    10    39     7    1
    11    41     8    1
    12    42     9    1
    13    44    10    1
    14    45    11    1
    15    48    12    1
    16    49    13    1
    17    49    14    1
    18    50    15    1
    19    50    16    1
    20    37    17    1
    21    18    19    1
    22    19    20    1
    23    19    21    1
    24    19    22    1
    25    26    23    1
    26    26    24    1
    27    26    51    1
    28    17    18    1
    29    18    25    1
    30    34    33   ar
    31    27    29    2
    32    27    28    2
    33    33    32   ar
    34    33    57    1
    35    32    31   ar
    36    31    56    1
    37     1     2   ar
    38     1    36    1
    39    37    47    2
    40    37    38    1
    41    38    48    1
    42    38    39    1
    43    39    40    1
    44    40    42   ar
    45    40    41   ar
    46    41    43   ar
    47    43    46    1
    48    43    45   ar
    49    45    44   ar
    50    44    42   ar
    51    46    50    1
    52    46    49    1
    53    18    26    1
    54    48    27    1
    55     2     3   ar
    56     2    52    1
    57     3     4   ar
    58     3    53    1
    59     4    54    1
