@<TRIPOS>MOLECULE
01
 43 46 0 0 0
SMALL
USER_CHARGES
****
From 3DB ct
@<TRIPOS>ATOM
      1 C           0.2640    2.1660    0.0190 C.ar    1  LIG1        0.0369
      2 C           0.0430    0.7800    0.1640 C.ar    1  LIG1        0.0742
      3 C           1.1520   -0.2320    0.2240 C.2     1  LIG1        0.1436
      4 N           2.2090   -0.1360    0.9660 N.2     1  LIG1       -0.3709
      5 C           2.3780    1.0510    1.8020 C.3     1  LIG1        0.1449
      6 H           3.2720    0.9070    2.4190 H       1  LIG1        0.0590
      7 H           1.5420    1.1750    2.5010 H       1  LIG1        0.0185
      8 C           2.5640    2.2460    0.9460 C.ar    1  LIG1        0.1686
      9 N           1.5690    2.7140    0.1120 N.ar    1  LIG1       -0.2005
     10 C           2.1270    3.8290   -0.5020 C.ar    1  LIG1        0.3108
     11 N           3.3320    4.0420    0.0050 N.ar    1  LIG1       -0.2090
     12 N           3.6100    3.0460    0.8990 N.ar    1  LIG1       -0.2296
     13 C           1.4930    4.6050   -1.6230 C.3     1  LIG1       -0.2342
     14 H           0.5820    5.0560   -1.2100 H       1  LIG1        0.1528
     15 H           1.1970    3.9460   -2.4470 H       1  LIG1        0.1373
     16 N           2.3640    5.6890   -2.1500 N.3     1  LIG1       -0.2745
     17 C           1.5750    6.5690   -3.0230 C.3     1  LIG1       -0.0403
     18 H           2.1960    7.3880   -3.4030 H       1  LIG1        0.0789
     19 H           0.7570    7.0330   -2.4610 H       1  LIG1        0.0493
     20 H           1.1480    6.0310   -3.8770 H       1  LIG1        0.0376
     21 C           3.4890    5.1300   -2.9130 C.3     1  LIG1       -0.2350
     22 H           4.1260    5.9360   -3.2960 H       1  LIG1        0.1109
     23 H           3.1530    4.5250   -3.7630 H       1  LIG1        0.0827
     24 H           4.1300    4.5080   -2.2790 H       1  LIG1        0.1371
     25 C           1.0470   -1.4480   -0.6470 C.ar    1  LIG1        0.0577
     26 C           1.4910   -2.6820   -0.1560 C.ar    1  LIG1       -0.1416
     27 H           1.8950   -2.7630    0.8510 H       1  LIG1        0.1318
     28 C           1.4100   -3.8240   -0.9550 C.ar    1  LIG1       -0.0689
     29 H           1.7500   -4.7830   -0.5690 H       1  LIG1        0.1014
     30 C           0.8950   -3.7350   -2.2480 C.ar    1  LIG1       -0.1121
     31 H           0.8330   -4.6260   -2.8710 H       1  LIG1        0.1079
     32 C           0.4650   -2.5060   -2.7470 C.ar    1  LIG1       -0.0756
     33 H           0.0720   -2.4370   -3.7600 H       1  LIG1        0.1009
     34 C           0.5440   -1.3600   -1.9520 C.ar    1  LIG1       -0.1584
     35 H           0.2210   -0.4090   -2.3690 H       1  LIG1        0.1040
     36 C          -1.2750    0.2880    0.1840 C.ar    1  LIG1        0.1026
     37 H          -1.4660   -0.7750    0.3150 H       1  LIG1        0.0775
     38 C          -2.3520    1.1570    0.0270 C.ar    1  LIG1       -0.4276
     39 C          -2.1370    2.5210   -0.1390 C.ar    1  LIG1        0.1822
     40 H          -2.9770    3.2030   -0.2480 H       1  LIG1        0.0654
     41 C          -0.8350    3.0270   -0.1360 C.ar    1  LIG1       -0.2090
     42 H          -0.7200    4.1070   -0.1940 H       1  LIG1        0.1187
     43 CL         -3.9590    0.5400    0.0420 Cl      1  LIG1        0.0941
@<TRIPOS>BOND
     1     1     2   ar
     2     2     3    1
     3     3     4    2
     4     4     5    1
     5     5     6    1
     6     5     7    1
     7     5     8    1
     8     8     9   ar
     9     9     1    1
    10     9    10   ar
    11    10    11   ar
    12    11    12   ar
    13    12     8   ar
    14    10    13    1
    15    13    14    1
    16    13    15    1
    17    13    16    1
    18    16    17    1
    19    17    18    1
    20    17    19    1
    21    17    20    1
    22    16    21    1
    23    21    22    1
    24    21    23    1
    25    21    24    1
    26     3    25    1
    27    25    26   ar
    28    26    27    1
    29    26    28   ar
    30    28    29    1
    31    28    30   ar
    32    30    31    1
    33    30    32   ar
    34    32    33    1
    35    32    34   ar
    36    34    35    1
    37    34    25   ar
    38     2    36   ar
    39    36    37    1
    40    36    38   ar
    41    38    39   ar
    42    39    40    1
    43    39    41   ar
    44    41    42    1
    45    41     1   ar
    46    38    43    1
