@<TRIPOS>MOLECULE
03
 32 34 0 0 0
SMALL
USER_CHARGES
****
From 3DB ct
@<TRIPOS>ATOM
      1 C          -2.1020    2.4770   -0.2560 C.ar    1  LIG1       -0.0855
      2 H          -2.9180    3.1710   -0.4460 H       1  LIG1        0.1740
      3 C          -2.3290    1.1080   -0.0950 C.ar    1  LIG1       -0.0247
      4 C          -1.2560    0.2350    0.1310 C.ar    1  LIG1       -0.1618
      5 H          -1.4420   -0.8310    0.2310 H       1  LIG1        0.1857
      6 C           0.0590    0.7350    0.2110 C.ar    1  LIG1       -0.0197
      7 C           0.2820    2.1220    0.1100 C.ar    1  LIG1        0.2906
      8 C          -0.8000    2.9740   -0.1610 C.ar    1  LIG1       -0.2160
      9 H          -0.6450    4.0470   -0.2700 H       1  LIG1        0.1407
     10 N           1.5340    2.7480    0.2390 N.am    1  LIG1       -0.5793
     11 H           1.6350    3.6870   -0.1390 H       1  LIG1        0.3371
     12 C           2.6320    2.2850    0.9160 C.2     1  LIG1        0.4520
     13 C           2.4430    1.0470    1.7750 C.3     1  LIG1        0.1617
     14 H           3.3420    0.9160    2.3860 H       1  LIG1        0.0476
     15 H           1.6060    1.1780    2.4700 H       1  LIG1        0.0171
     16 N           2.2840   -0.1320    0.9260 N.2     1  LIG1       -0.4392
     17 C           1.1850   -0.2540    0.2570 C.2     1  LIG1        0.1740
     18 C           1.0570   -1.4720   -0.5920 C.ar    1  LIG1        0.4318
     19 C           1.5110   -2.6890   -0.0630 C.ar    1  LIG1       -0.3547
     20 H           1.9410   -2.7360    0.9360 H       1  LIG1        0.1768
     21 C           1.4020   -3.8580   -0.8160 C.ar    1  LIG1        0.0482
     22 H           1.7520   -4.8040   -0.4070 H       1  LIG1        0.0941
     23 C           0.8400   -3.8160   -2.0920 C.ar    1  LIG1       -0.2124
     24 H           0.7550   -4.7290   -2.6790 H       1  LIG1        0.1267
     25 C           0.3860   -2.6050   -2.6190 C.ar    1  LIG1        0.1979
     26 H          -0.0440   -2.5880   -3.6190 H       1  LIG1        0.0540
     27 C           0.4910   -1.4280   -1.8720 C.ar    1  LIG1       -0.5420
     28 CL         -0.0420    0.0450   -2.6030 Cl      1  LIG1        0.0922
     29 O           3.7020    2.9020    0.8750 O.2     1  LIG1       -0.3910
     30 N          -3.6970    0.5800   -0.1820 N.pl3   1  LIG1        0.5804
     31 O          -3.8700   -0.6400   -0.0020 O.2     1  LIG1       -0.3787
     32 O          -4.6230    1.3750   -0.4300 O.2     1  LIG1       -0.3776
@<TRIPOS>BOND
     1     2     1    1
     2     1     3   ar
     3     3     4   ar
     4     4     5    1
     5     4     6   ar
     6     6     7   ar
     7     7     8   ar
     8     8     9    1
     9     8     1   ar
    10     7    10    1
    11    10    11    1
    12    10    12   am
    13    12    13    1
    14    13    14    1
    15    13    15    1
    16    13    16    1
    17    16    17    2
    18    17     6    1
    19    17    18    1
    20    18    19   ar
    21    19    20    1
    22    19    21   ar
    23    21    22    1
    24    21    23   ar
    25    23    24    1
    26    23    25   ar
    27    25    26    1
    28    25    27   ar
    29    27    18   ar
    30    27    28    1
    31    12    29    2
    32     3    30    1
    33    30    31    2
    34    30    32    1
