@<TRIPOS>MOLECULE
05
 31 33 0 0 0
SMALL
USER_CHARGES
****
From 3DB ct
@<TRIPOS>ATOM
      1 C           0.2850    2.0670    0.1060 C.ar    1  LIG1        0.2825
      2 C           0.0220    0.6800    0.2230 C.ar    1  LIG1        0.1690
      3 N           1.0480   -0.3420    0.2840 N.am    1  LIG1       -0.6499
      4 C           2.2970   -0.1660    0.8900 C.2     1  LIG1        0.7148
      5 C           2.4550    1.0490    1.7410 C.3     1  LIG1       -0.3966
      6 H           3.3420    0.9250    2.3740 H       1  LIG1        0.1266
      7 H           1.6030    1.1740    2.4180 H       1  LIG1        0.1280
      8 C           2.6400    2.2550    0.8840 C.2     1  LIG1        0.6603
      9 N           1.5470    2.6830    0.1900 N.am    1  LIG1       -0.6585
     10 H           1.6450    3.6130   -0.2100 H       1  LIG1        0.3368
     11 O           3.7010    2.8840    0.8500 O.2     1  LIG1       -0.4412
     12 O           3.2520   -0.9460    0.7720 O.2     1  LIG1       -0.4365
     13 C           0.7780   -1.5890   -0.3910 C.ar    1  LIG1        0.3618
     14 C           0.1560   -1.6160   -1.6520 C.ar    1  LIG1       -0.2340
     15 H          -0.1170   -0.6930   -2.1620 H       1  LIG1        0.1365
     16 C          -0.0960   -2.8260   -2.3040 C.ar    1  LIG1       -0.0851
     17 H          -0.5770   -2.8270   -3.2810 H       1  LIG1        0.1099
     18 C           0.2730   -4.0300   -1.7100 C.ar    1  LIG1       -0.1012
     19 H           0.0760   -4.9720   -2.2170 H       1  LIG1        0.1041
     20 C           0.9000   -4.0230   -0.4670 C.ar    1  LIG1       -0.0898
     21 H           1.1910   -4.9620    0.0010 H       1  LIG1        0.1137
     22 C           1.1550   -2.8120    0.1850 C.ar    1  LIG1       -0.1947
     23 H           1.6290   -2.8460    1.1650 H       1  LIG1        0.1407
     24 C          -1.3340    0.2740    0.2180 C.ar    1  LIG1        0.0661
     25 H          -1.5940   -0.7720    0.3750 H       1  LIG1        0.0881
     26 C          -2.3730    1.1810    0.0140 C.ar    1  LIG1       -0.4357
     27 C          -2.0970    2.5220   -0.1910 C.ar    1  LIG1        0.1702
     28 H          -2.8970    3.2380   -0.3650 H       1  LIG1        0.0668
     29 C          -0.7750    2.9590   -0.1470 C.ar    1  LIG1       -0.3075
     30 H          -0.5820    4.0240   -0.2780 H       1  LIG1        0.1578
     31 CL         -4.0030    0.6290   -0.0020 Cl      1  LIG1        0.0970
@<TRIPOS>BOND
     1     1     2   ar
     2     2     3    1
     3     3     4   am
     4     4     5    1
     5     5     6    1
     6     5     7    1
     7     5     8    1
     8     8     9   am
     9     9    10    1
    10     9     1    1
    11     8    11    2
    12     4    12    2
    13     3    13    1
    14    13    14   ar
    15    14    15    1
    16    14    16   ar
    17    16    17    1
    18    16    18   ar
    19    18    19    1
    20    18    20   ar
    21    20    21    1
    22    20    22   ar
    23    22    23    1
    24    22    13   ar
    25     2    24   ar
    26    24    25    1
    27    24    26   ar
    28    26    27   ar
    29    27    28    1
    30    27    29   ar
    31    29    30    1
    32    29     1   ar
    33    26    31    1
