@<TRIPOS>MOLECULE
06
 34 36 0 0 0
SMALL
USER_CHARGES
****
From 3DB ct
@<TRIPOS>ATOM
      1 C          -2.1110    2.5190   -0.1810 C.ar    1  LIG1        0.2504
      2 H          -2.9320    3.2130   -0.3510 H       1  LIG1        0.0570
      3 C          -2.3550    1.1630    0.0020 C.ar    1  LIG1       -0.5138
      4 C          -1.2970    0.2790    0.2010 C.ar    1  LIG1        0.2020
      5 H          -1.5060   -0.7820    0.3140 H       1  LIG1        0.0645
      6 C           0.0280    0.7520    0.2250 C.ar    1  LIG1       -0.1445
      7 C           0.2730    2.1320    0.1120 C.ar    1  LIG1        0.3674
      8 C          -0.8010    3.0000   -0.1320 C.ar    1  LIG1       -0.3749
      9 H          -0.6350    4.0690   -0.2530 H       1  LIG1        0.1584
     10 N           1.5400    2.7330    0.2130 N.am    1  LIG1       -0.6078
     11 H           1.6550    3.6670   -0.1730 H       1  LIG1        0.3289
     12 C           2.6350    2.2480    0.8800 C.2     1  LIG1        0.5325
     13 C           2.4250    1.0240    1.7570 C.3     1  LIG1       -0.0330
     14 H           3.3270    0.8820    2.3630 H       1  LIG1        0.0818
     15 H           1.5970    1.1810    2.4580 H       1  LIG1        0.0566
     16 N           2.2360   -0.1630    0.9240 N.2     1  LIG1       -0.3046
     17 C           1.1360   -0.2560    0.2480 C.2     1  LIG1        0.1609
     18 C           0.9540   -1.4780   -0.6100 C.2     1  LIG1       -0.0844
     19 C           0.5620   -1.3470   -1.8900 C.2     1  LIG1       -0.0632
     20 H           0.3830   -0.3650   -2.3260 H       1  LIG1        0.0808
     21 C           0.3540   -2.5170   -2.8080 C.3     1  LIG1       -0.0592
     22 H           1.1560   -2.5150   -3.5560 H       1  LIG1        0.0512
     23 H          -0.5900   -2.3910   -3.3500 H       1  LIG1        0.0291
     24 C           0.3340   -3.8600   -2.0770 C.3     1  LIG1       -0.0478
     25 H           0.4490   -4.6750   -2.8010 H       1  LIG1        0.0215
     26 H          -0.6400   -4.0000   -1.5920 H       1  LIG1        0.0378
     27 C           1.4370   -3.9310   -1.0260 C.3     1  LIG1       -0.0876
     28 H           2.4140   -3.8530   -1.5190 H       1  LIG1        0.0521
     29 H           1.4130   -4.9040   -0.5210 H       1  LIG1        0.0229
     30 C           1.2920   -2.8110    0.0080 C.3     1  LIG1        0.0407
     31 H           0.4950   -3.0720    0.7150 H       1  LIG1        0.0363
     32 H           2.2240   -2.7520    0.5820 H       1  LIG1        0.0100
     33 O           3.7200    2.8360    0.8170 O.2     1  LIG1       -0.4167
     34 CL         -3.9690    0.5690   -0.0430 Cl      1  LIG1        0.0948
@<TRIPOS>BOND
     1     2     1    1
     2     1     3   ar
     3     3     4   ar
     4     4     5    1
     5     4     6   ar
     6     6     7   ar
     7     7     8   ar
     8     8     9    1
     9     8     1   ar
    10     7    10    1
    11    10    11    1
    12    10    12   am
    13    12    13    1
    14    13    14    1
    15    13    15    1
    16    13    16    1
    17    16    17    2
    18    17     6    1
    19    17    18    1
    20    18    19    2
    21    19    20    1
    22    19    21    1
    23    21    22    1
    24    21    23    1
    25    21    24    1
    26    24    25    1
    27    24    26    1
    28    24    27    1
    29    27    28    1
    30    27    29    1
    31    27    30    1
    32    30    31    1
    33    30    32    1
    34    30    18    1
    35    12    33    2
    36     3    34    1
