@<TRIPOS>MOLECULE
08
 32 35 0 0 0
SMALL
USER_CHARGES
****
From 3DB ct
@<TRIPOS>ATOM
      1 C           0.2520    2.1720    0.0710 C.ar    1  LIG1       -0.1255
      2 C           0.0510    0.7830    0.2030 C.ar    1  LIG1        0.1577
      3 C           1.1710   -0.2230    0.2290 C.2     1  LIG1        0.1151
      4 N           2.2590   -0.1290    0.9240 N.2     1  LIG1       -0.3679
      5 C           2.4690    1.0400    1.7700 C.3     1  LIG1        0.1305
      6 H           3.3990    0.8920    2.3300 H       1  LIG1        0.0606
      7 H           1.6750    1.1390    2.5190 H       1  LIG1        0.0251
      8 C           2.5920    2.2610    0.9410 C.ar    1  LIG1        0.1366
      9 N           1.5340    2.7530    0.2080 N.ar    1  LIG1        0.0021
     10 C           1.9870    3.9590   -0.2660 C.ar    1  LIG1       -0.0035
     11 H           1.3910    4.6250   -0.8750 H       1  LIG1        0.1915
     12 N           3.2390    4.1540    0.0900 N.ar    1  LIG1       -0.2158
     13 N           3.6230    3.0820    0.8520 N.ar    1  LIG1       -0.2032
     14 C           1.0420   -1.4400   -0.6390 C.ar    1  LIG1        0.1040
     15 C           1.4760   -2.6780   -0.1500 C.ar    1  LIG1       -0.1763
     16 H           1.8890   -2.7610    0.8530 H       1  LIG1        0.1409
     17 C           1.3720   -3.8190   -0.9470 C.ar    1  LIG1       -0.0552
     18 H           1.7040   -4.7820   -0.5630 H       1  LIG1        0.0985
     19 C           0.8450   -3.7250   -2.2350 C.ar    1  LIG1       -0.1121
     20 H           0.7660   -4.6160   -2.8560 H       1  LIG1        0.1068
     21 C           0.4270   -2.4910   -2.7320 C.ar    1  LIG1       -0.0716
     22 H           0.0250   -2.4190   -3.7410 H       1  LIG1        0.1012
     23 C           0.5280   -1.3460   -1.9390 C.ar    1  LIG1       -0.1915
     24 H           0.2140   -0.3900   -2.3520 H       1  LIG1        0.1234
     25 C          -1.2620    0.2780    0.1940 C.ar    1  LIG1        0.0352
     26 H          -1.4460   -0.7870    0.3240 H       1  LIG1        0.0919
     27 C          -2.3460    1.1310   -0.0040 C.ar    1  LIG1       -0.3922
     28 C          -2.1440    2.4920   -0.1980 C.ar    1  LIG1        0.1568
     29 H          -2.9870    3.1600   -0.3600 H       1  LIG1        0.0640
     30 C          -0.8490    3.0160   -0.1620 C.ar    1  LIG1       -0.1436
     31 H          -0.7380    4.0930   -0.2720 H       1  LIG1        0.1227
     32 CL         -3.9440    0.4920   -0.0290 Cl      1  LIG1        0.0937
@<TRIPOS>BOND
     1     1     2   ar
     2     2     3    1
     3     3     4    2
     4     4     5    1
     5     5     6    1
     6     5     7    1
     7     5     8    1
     8     8     9   ar
     9     9     1    1
    10     9    10   ar
    11    10    11    1
    12    10    12   ar
    13    12    13   ar
    14    13     8   ar
    15     3    14    1
    16    14    15   ar
    17    15    16    1
    18    15    17   ar
    19    17    18    1
    20    17    19   ar
    21    19    20    1
    22    19    21   ar
    23    21    22    1
    24    21    23   ar
    25    23    24    1
    26    23    14   ar
    27     2    25   ar
    28    25    26    1
    29    25    27   ar
    30    27    28   ar
    31    28    29    1
    32    28    30   ar
    33    30    31    1
    34    30     1   ar
    35    27    32    1
