@<TRIPOS>MOLECULE
09
 38 41 0 0 0
SMALL
USER_CHARGES
****
From 3DB ct
@<TRIPOS>ATOM
      1 C           0.1810    2.0600    0.1640 C.ar    1  LIG1       -0.2458
      2 C           0.0930    0.6760    0.1590 C.ar    1  LIG1        0.3083
      3 C           1.2260   -0.2600    0.1850 C.2     1  LIG1        0.0054
      4 N           2.3320   -0.0750    0.8230 N.2     1  LIG1       -0.3860
      5 C           2.4850    1.0680    1.7170 C.3     1  LIG1        0.2218
      6 H           3.4460    0.9610    2.2330 H       1  LIG1        0.0367
      7 H           1.7220    1.0500    2.5060 H       1  LIG1        0.0084
      8 C           2.4730    2.3630    0.9960 C.ar    1  LIG1        0.1593
      9 N           1.3450    2.8190    0.3350 N.ar    1  LIG1       -0.1669
     10 C           1.6910    4.1170   -0.0370 C.ar    1  LIG1        0.3501
     11 N           2.9290    4.3760    0.3480 N.ar    1  LIG1       -0.2415
     12 N           3.4190    3.2800    0.9910 N.ar    1  LIG1       -0.2268
     13 C           0.8590    5.0540   -0.8310 C.3     1  LIG1       -0.3497
     14 H           1.4700    5.8960   -1.1740 H       1  LIG1        0.1146
     15 H           0.0480    5.4700   -0.2260 H       1  LIG1        0.1115
     16 H           0.4490    4.5710   -1.7220 H       1  LIG1        0.1341
     17 C           1.0880   -1.4930   -0.6270 C.ar    1  LIG1        0.3703
     18 C           1.5780   -2.6950   -0.0970 C.ar    1  LIG1       -0.3325
     19 H           2.0480   -2.7180    0.8850 H       1  LIG1        0.1847
     20 C           1.4580   -3.8760   -0.8290 C.ar    1  LIG1        0.0187
     21 H           1.8370   -4.8110   -0.4200 H       1  LIG1        0.0954
     22 C           0.8500   -3.8590   -2.0840 C.ar    1  LIG1       -0.1770
     23 H           0.7570   -4.7810   -2.6550 H       1  LIG1        0.1207
     24 C           0.3610   -2.6610   -2.6120 C.ar    1  LIG1        0.1114
     25 H          -0.1050   -2.6640   -3.5950 H       1  LIG1        0.0647
     26 C           0.4780   -1.4730   -1.8860 C.ar    1  LIG1       -0.4168
     27 CL         -0.1070   -0.0170   -2.6090 Cl      1  LIG1        0.0809
     28 C          -1.2900    0.2840    0.0210 C.ar    1  LIG1       -0.3506
     29 H          -1.6330   -0.7450   -0.0120 H       1  LIG1        0.2214
     30 C          -2.1560    1.3530   -0.0800 C.ar    1  LIG1       -0.1940
     31 S          -1.3140    2.8330   -0.0250 S.2     1  LIG1        0.2253
     32 C          -3.6480    1.3240   -0.2340 C.3     1  LIG1        0.1230
     33 H          -4.0770    2.2180    0.2350 H       1  LIG1        0.0230
     34 H          -4.0750    0.4620    0.2920 H       1  LIG1        0.0088
     35 C          -4.0600    1.2810   -1.6980 C.3     1  LIG1       -0.0822
     36 H          -5.1510    1.2760   -1.7840 H       1  LIG1        0.0190
     37 H          -3.6760    0.3830   -2.1940 H       1  LIG1        0.0215
     38 H          -3.6810    2.1530   -2.2430 H       1  LIG1        0.0310
@<TRIPOS>BOND
     1     1     2   ar
     2     2     3    1
     3     3     4    2
     4     4     5    1
     5     5     6    1
     6     5     7    1
     7     5     8    1
     8     8     9   ar
     9     9     1    1
    10     9    10   ar
    11    10    11   ar
    12    11    12   ar
    13    12     8   ar
    14    10    13    1
    15    13    14    1
    16    13    15    1
    17    13    16    1
    18     3    17    1
    19    17    18   ar
    20    18    19    1
    21    18    20   ar
    22    20    21    1
    23    20    22   ar
    24    22    23    1
    25    22    24   ar
    26    24    25    1
    27    24    26   ar
    28    26    17   ar
    29    26    27    1
    30     2    28   ar
    31    28    29    1
    32    28    30   ar
    33    30    31   ar
    34    31     1   ar
    35    30    32    1
    36    32    33    1
    37    32    34    1
    38    32    35    1
    39    35    36    1
    40    35    37    1
    41    35    38    1
