@<TRIPOS>MOLECULE
10
 35 37 0 0 0
SMALL
USER_CHARGES
****
From 3DB ct
@<TRIPOS>ATOM
      1 C          -2.1360    2.4940   -0.1710 C.ar    1  LIG1       -0.1553
      2 H          -2.9610    3.1890   -0.3140 H       1  LIG1        0.1749
      3 C          -2.3560    1.1300    0.0100 C.ar    1  LIG1        0.0929
      4 C          -1.2730    0.2630    0.1850 C.ar    1  LIG1       -0.2319
      5 H          -1.4470   -0.8020    0.3180 H       1  LIG1        0.1906
      6 C           0.0440    0.7670    0.1840 C.ar    1  LIG1        0.0746
      7 C           0.2860    2.1530    0.0510 C.ar    1  LIG1        0.0445
      8 C          -0.8280    2.9930   -0.1520 C.ar    1  LIG1       -0.0888
      9 H          -0.7110    4.0700   -0.2620 H       1  LIG1        0.1219
     10 N           1.5940    2.7400    0.1040 N.am    1  LIG1       -0.2340
     11 C           2.6400    2.2430    0.8860 C.2     1  LIG1        0.4245
     12 C           2.3150    1.0750    1.8070 C.3     1  LIG1        0.0277
     13 H           3.1480    0.9480    2.5060 H       1  LIG1        0.0789
     14 H           1.4260    1.2740    2.4150 H       1  LIG1        0.0357
     15 N           2.2020   -0.1370    0.9940 N.2     1  LIG1       -0.3862
     16 C           1.1510   -0.2410    0.2480 C.2     1  LIG1        0.3225
     17 C           1.0480   -1.4470   -0.6240 C.ar    1  LIG1       -0.2290
     18 C           1.4260   -2.7030   -0.1340 C.ar    1  LIG1       -0.0299
     19 H           1.7940   -2.8220    0.8830 H       1  LIG1        0.1265
     20 C           1.3170   -3.8300   -0.9530 C.ar    1  LIG1       -0.1332
     21 H           1.6100   -4.8080   -0.5730 H       1  LIG1        0.1163
     22 C           0.8280   -3.7070   -2.2550 C.ar    1  LIG1       -0.0398
     23 H           0.7450   -4.5880   -2.8900 H       1  LIG1        0.1142
     24 C           0.4460   -2.4570   -2.7420 C.ar    1  LIG1       -0.2340
     25 H           0.0670   -2.3540   -3.7550 H       1  LIG1        0.1505
     26 C           0.5540   -1.3340   -1.9250 C.ar    1  LIG1        0.3561
     27 F           0.2030   -0.1410   -2.4310 F       1  LIG1       -0.2512
     28 O           3.7750    2.7380    0.8820 O.2     1  LIG1       -0.3782
     29 C           1.8330    3.9790   -0.6340 C.3     1  LIG1       -0.0820
     30 H           2.9010    4.1280   -0.8200 H       1  LIG1        0.0968
     31 H           1.4740    4.8240   -0.0380 H       1  LIG1        0.0517
     32 H           1.3280    3.9480   -1.6040 H       1  LIG1        0.0756
     33 N          -3.7270    0.6020    0.0050 N.pl3   1  LIG1        0.5329
     34 O          -3.8890   -0.6190    0.1900 O.2     1  LIG1       -0.3677
     35 O          -4.6660    1.3980   -0.1810 O.2     1  LIG1       -0.3680
@<TRIPOS>BOND
     1     2     1    1
     2     1     3   ar
     3     3     4   ar
     4     4     5    1
     5     4     6   ar
     6     6     7   ar
     7     7     8   ar
     8     8     9    1
     9     8     1   ar
    10     7    10    1
    11    10    11   am
    12    11    12    1
    13    12    13    1
    14    12    14    1
    15    12    15    1
    16    15    16    2
    17    16     6    1
    18    16    17    1
    19    17    18   ar
    20    18    19    1
    21    18    20   ar
    22    20    21    1
    23    20    22   ar
    24    22    23    1
    25    22    24   ar
    26    24    25    1
    27    24    26   ar
    28    26    17   ar
    29    26    27    1
    30    11    28    2
    31    10    29    1
    32    29    30    1
    33    29    31    1
    34    29    32    1
    35     3    33    1
    36    33    34    2
    37    33    35    1
