@<TRIPOS>MOLECULE
15
 31 33 0 0 0
SMALL
USER_CHARGES
****
From 3DB ct
@<TRIPOS>ATOM
      1 C          -2.1080    2.5060   -0.1870 C.ar    1  LIG1        0.2393
      2 H          -2.9340    3.1930   -0.3580 H       1  LIG1        0.0582
      3 C          -2.3420    1.1480   -0.0010 C.ar    1  LIG1       -0.4906
      4 C          -1.2780    0.2710    0.1980 C.ar    1  LIG1        0.1721
      5 H          -1.4790   -0.7910    0.3150 H       1  LIG1        0.0696
      6 C           0.0420    0.7550    0.2200 C.ar    1  LIG1       -0.1380
      7 C           0.2780    2.1370    0.1060 C.ar    1  LIG1        0.3209
      8 C          -0.8020    2.9960   -0.1400 C.ar    1  LIG1       -0.3452
      9 H          -0.6430    4.0670   -0.2620 H       1  LIG1        0.1526
     10 N           1.5410    2.7430    0.2120 N.am    1  LIG1       -0.5937
     11 H           1.6570    3.6750   -0.1770 H       1  LIG1        0.3432
     12 C           2.6320    2.2640    0.8950 C.2     1  LIG1        0.4042
     13 C           2.4100    1.0160    1.8000 C.3     1  LIG1        0.4362
     14 H           1.5350    1.1850    2.4380 H       1  LIG1        0.0229
     15 N           2.2380   -0.1470    0.9430 N.2     1  LIG1       -0.4694
     16 C           1.1570   -0.2450    0.2400 C.2     1  LIG1        0.2141
     17 C           1.0370   -1.4540   -0.6380 C.ar    1  LIG1        0.0880
     18 C           1.4760   -2.6940   -0.1550 C.ar    1  LIG1       -0.1608
     19 H           1.8850   -2.7820    0.8490 H       1  LIG1        0.1388
     20 C           1.3810   -3.8300   -0.9610 C.ar    1  LIG1       -0.0669
     21 H           1.7160   -4.7940   -0.5820 H       1  LIG1        0.0999
     22 C           0.8600   -3.7300   -2.2510 C.ar    1  LIG1       -0.0977
     23 H           0.7870   -4.6170   -2.8780 H       1  LIG1        0.1046
     24 C           0.4370   -2.4940   -2.7400 C.ar    1  LIG1       -0.0969
     25 H           0.0390   -2.4170   -3.7510 H       1  LIG1        0.1073
     26 C           0.5290   -1.3540   -1.9390 C.ar    1  LIG1       -0.1599
     27 H           0.2120   -0.3970   -2.3470 H       1  LIG1        0.1152
     28 O           3.5070    0.8400    2.6920 O.3     1  LIG1       -0.4736
     29 H           4.2310    0.5540    2.0980 H       1  LIG1        0.3051
     30 O           3.7140    2.8600    0.8290 O.2     1  LIG1       -0.3934
     31 CL         -3.9530    0.5430   -0.0420 Cl      1  LIG1        0.0941
@<TRIPOS>BOND
     1     2     1    1
     2     1     3   ar
     3     3     4   ar
     4     4     5    1
     5     4     6   ar
     6     6     7   ar
     7     7     8   ar
     8     8     9    1
     9     8     1   ar
    10     7    10    1
    11    10    11    1
    12    10    12   am
    13    12    13    1
    14    13    14    1
    15    13    15    1
    16    15    16    2
    17    16     6    1
    18    16    17    1
    19    17    18   ar
    20    18    19    1
    21    18    20   ar
    22    20    21    1
    23    20    22   ar
    24    22    23    1
    25    22    24   ar
    26    24    25    1
    27    24    26   ar
    28    26    27    1
    29    26    17   ar
    30    13    28    1
    31    28    29    1
    32    12    30    2
    33     3    31    1
