@<TRIPOS>MOLECULE
18
 30 32 0 0 0
SMALL
USER_CHARGES
****
From 3DB ct
@<TRIPOS>ATOM
      1 C          -2.1030    2.5140   -0.2080 C.ar    1  LIG1       -0.0497
      2 H          -2.9320    3.1980   -0.3790 H       1  LIG1        0.1105
      3 C          -2.3450    1.1550   -0.0350 C.ar    1  LIG1       -0.1300
      4 H          -3.3630    0.7730   -0.0720 H       1  LIG1        0.1114
      5 C          -1.2770    0.2800    0.1640 C.ar    1  LIG1       -0.1323
      6 H          -1.4890   -0.7820    0.2690 H       1  LIG1        0.1337
      7 C           0.0450    0.7590    0.2020 C.ar    1  LIG1       -0.0425
      8 C           0.2820    2.1410    0.1040 C.ar    1  LIG1        0.2266
      9 C          -0.7970    3.0020   -0.1450 C.ar    1  LIG1       -0.2209
     10 H          -0.6360    4.0740   -0.2560 H       1  LIG1        0.1285
     11 N           1.5430    2.7500    0.2290 N.am    1  LIG1       -0.5727
     12 H           1.6590    3.6870   -0.1470 H       1  LIG1        0.3233
     13 C           2.6260    2.2660    0.9160 C.2     1  LIG1        0.4941
     14 C           2.4060    1.0320    1.7770 C.3     1  LIG1        0.0782
     15 H           3.2960    0.8900    2.4000 H       1  LIG1        0.0563
     16 H           1.5630    1.1780    2.4620 H       1  LIG1        0.0290
     17 N           2.2410   -0.1470    0.9290 N.2     1  LIG1       -0.4038
     18 C           1.1580   -0.2450    0.2260 C.2     1  LIG1        0.2740
     19 C           1.0360   -1.4600   -0.6440 C.ar    1  LIG1       -0.0176
     20 C           0.5270   -1.3660   -1.9460 C.ar    1  LIG1       -0.1022
     21 H           0.2090   -0.4100   -2.3570 H       1  LIG1        0.0990
     22 C           0.4370   -2.5090   -2.7430 C.ar    1  LIG1       -0.1028
     23 H           0.0390   -2.4370   -3.7540 H       1  LIG1        0.1037
     24 C           0.8600   -3.7430   -2.2480 C.ar    1  LIG1       -0.1008
     25 H           0.7890   -4.6320   -2.8720 H       1  LIG1        0.1016
     26 C           1.3820   -3.8370   -0.9580 C.ar    1  LIG1       -0.0634
     27 H           1.7180   -4.7990   -0.5750 H       1  LIG1        0.0950
     28 C           1.4760   -2.6970   -0.1570 C.ar    1  LIG1       -0.1372
     29 H           1.8850   -2.7800    0.8480 H       1  LIG1        0.1300
     30 O           3.7090    2.8610    0.8810 O.2     1  LIG1       -0.4191
@<TRIPOS>BOND
     1     2     1    1
     2     1     3   ar
     3     3     4    1
     4     3     5   ar
     5     5     6    1
     6     5     7   ar
     7     7     8   ar
     8     8     9   ar
     9     9    10    1
    10     9     1   ar
    11     8    11    1
    12    11    12    1
    13    11    13   am
    14    13    14    1
    15    14    15    1
    16    14    16    1
    17    14    17    1
    18    17    18    2
    19    18     7    1
    20    18    19    1
    21    19    20   ar
    22    20    21    1
    23    20    22   ar
    24    22    23    1
    25    22    24   ar
    26    24    25    1
    27    24    26   ar
    28    26    27    1
    29    26    28   ar
    30    28    29    1
    31    28    19   ar
    32    13    30    2
