@<TRIPOS>MOLECULE
19
 30 32 0 0 0
SMALL
USER_CHARGES
****
From 3DB ct
@<TRIPOS>ATOM
      1 C          -2.1030    2.5130   -0.2080 C.ar    1  LIG1       -0.2181
      2 H          -2.9380    3.1870   -0.3780 H       1  LIG1        0.1636
      3 C          -2.3290    1.1560   -0.0380 C.ar    1  LIG1        0.3678
      4 C          -1.2740    0.2750    0.1610 C.ar    1  LIG1       -0.2961
      5 H          -1.4940   -0.7850    0.2620 H       1  LIG1        0.1911
      6 C           0.0450    0.7570    0.2010 C.ar    1  LIG1       -0.0325
      7 C           0.2800    2.1410    0.1050 C.ar    1  LIG1        0.1698
      8 C          -0.7990    3.0040   -0.1430 C.ar    1  LIG1       -0.1555
      9 H          -0.6390    4.0760   -0.2520 H       1  LIG1        0.1357
     10 N           1.5400    2.7500    0.2310 N.am    1  LIG1       -0.5360
     11 H           1.6560    3.6880   -0.1440 H       1  LIG1        0.3158
     12 C           2.6250    2.2680    0.9160 C.2     1  LIG1        0.4732
     13 C           2.4070    1.0320    1.7770 C.3     1  LIG1        0.0872
     14 H           3.2970    0.8900    2.3990 H       1  LIG1        0.0587
     15 H           1.5640    1.1770    2.4630 H       1  LIG1        0.0303
     16 N           2.2410   -0.1460    0.9270 N.2     1  LIG1       -0.4176
     17 C           1.1590   -0.2450    0.2250 C.2     1  LIG1        0.3453
     18 C           1.0380   -1.4600   -0.6450 C.ar    1  LIG1       -0.0728
     19 C           0.5270   -1.3650   -1.9460 C.ar    1  LIG1       -0.0853
     20 H           0.2110   -0.4090   -2.3580 H       1  LIG1        0.0948
     21 C           0.4340   -2.5090   -2.7420 C.ar    1  LIG1       -0.0975
     22 H           0.0350   -2.4370   -3.7520 H       1  LIG1        0.1035
     23 C           0.8560   -3.7430   -2.2460 C.ar    1  LIG1       -0.1016
     24 H           0.7830   -4.6330   -2.8690 H       1  LIG1        0.1029
     25 C           1.3790   -3.8370   -0.9570 C.ar    1  LIG1       -0.0543
     26 H           1.7140   -4.7990   -0.5740 H       1  LIG1        0.0933
     27 C           1.4760   -2.6970   -0.1570 C.ar    1  LIG1       -0.1276
     28 H           1.8860   -2.7800    0.8470 H       1  LIG1        0.1279
     29 O           3.7070    2.8630    0.8810 O.2     1  LIG1       -0.4098
     30 F          -3.5820    0.6840   -0.0860 F       1  LIG1       -0.2563
@<TRIPOS>BOND
     1     2     1    1
     2     1     3   ar
     3     3     4   ar
     4     4     5    1
     5     4     6   ar
     6     6     7   ar
     7     7     8   ar
     8     8     9    1
     9     8     1   ar
    10     7    10    1
    11    10    11    1
    12    10    12   am
    13    12    13    1
    14    13    14    1
    15    13    15    1
    16    13    16    1
    17    16    17    2
    18    17     6    1
    19    17    18    1
    20    18    19   ar
    21    19    20    1
    22    19    21   ar
    23    21    22    1
    24    21    23   ar
    25    23    24    1
    26    23    25   ar
    27    25    26    1
    28    25    27   ar
    29    27    28    1
    30    27    18   ar
    31    12    29    2
    32     3    30    1
