@<TRIPOS>MOLECULE
20
 32 34 0 0 0
SMALL
USER_CHARGES
****
From 3DB ct
@<TRIPOS>ATOM
      1 C          -2.0970    2.5040   -0.2200 C.ar    1  LIG1       -0.3191
      2 H          -2.9130    3.1980   -0.4150 H       1  LIG1        0.1512
      3 C          -2.3600    1.1520   -0.0110 C.ar    1  LIG1        0.5152
      4 C          -1.2800    0.2840    0.1680 C.ar    1  LIG1       -0.4059
      5 H          -1.4760   -0.7820    0.2680 H       1  LIG1        0.1788
      6 C           0.0440    0.7620    0.2040 C.ar    1  LIG1        0.0140
      7 C           0.2850    2.1410    0.1010 C.ar    1  LIG1        0.0995
      8 C          -0.7900    2.9970   -0.1600 C.ar    1  LIG1       -0.1016
      9 H          -0.6310    4.0670   -0.2880 H       1  LIG1        0.1250
     10 N           1.5470    2.7480    0.2260 N.am    1  LIG1       -0.5467
     11 H           1.6650    3.6840   -0.1530 H       1  LIG1        0.3144
     12 C           2.6280    2.2650    0.9170 C.2     1  LIG1        0.4963
     13 C           2.4060    1.0320    1.7790 C.3     1  LIG1        0.0733
     14 H           3.2950    0.8890    2.4020 H       1  LIG1        0.0573
     15 H           1.5620    1.1790    2.4630 H       1  LIG1        0.0295
     16 N           2.2380   -0.1470    0.9310 N.2     1  LIG1       -0.4206
     17 C           1.1560   -0.2440    0.2280 C.2     1  LIG1        0.3612
     18 C           1.0340   -1.4580   -0.6440 C.ar    1  LIG1       -0.0958
     19 C           0.5270   -1.3630   -1.9460 C.ar    1  LIG1       -0.0724
     20 H           0.2070   -0.4080   -2.3570 H       1  LIG1        0.0991
     21 C           0.4380   -2.5060   -2.7440 C.ar    1  LIG1       -0.1122
     22 H           0.0410   -2.4330   -3.7560 H       1  LIG1        0.1024
     23 C           0.8630   -3.7390   -2.2510 C.ar    1  LIG1       -0.0881
     24 H           0.7940   -4.6280   -2.8750 H       1  LIG1        0.0983
     25 C           1.3830   -3.8340   -0.9600 C.ar    1  LIG1       -0.0819
     26 H           1.7200   -4.7970   -0.5780 H       1  LIG1        0.0966
     27 C           1.4740   -2.6950   -0.1580 C.ar    1  LIG1       -0.0996
     28 H           1.8830   -2.7790    0.8470 H       1  LIG1        0.1198
     29 O           3.7110    2.8600    0.8840 O.2     1  LIG1       -0.4293
     30 N          -3.6470    0.6610   -0.1180 N.pl3   1  LIG1       -0.8899
     31 H          -3.8600   -0.2920    0.1660 H       1  LIG1        0.3667
     32 H          -4.4400    1.3000   -0.1140 H       1  LIG1        0.3643
@<TRIPOS>BOND
     1     2     1    1
     2     1     3   ar
     3     3     4   ar
     4     4     5    1
     5     4     6   ar
     6     6     7   ar
     7     7     8   ar
     8     8     9    1
     9     8     1   ar
    10     7    10    1
    11    10    11    1
    12    10    12   am
    13    12    13    1
    14    13    14    1
    15    13    15    1
    16    13    16    1
    17    16    17    2
    18    17     6    1
    19    17    18    1
    20    18    19   ar
    21    19    20    1
    22    19    21   ar
    23    21    22    1
    24    21    23   ar
    25    23    24    1
    26    23    25   ar
    27    25    26    1
    28    25    27   ar
    29    27    28    1
    30    27    18   ar
    31    12    29    2
    32     3    30    1
    33    30    31    1
    34    30    32    1
