@<TRIPOS>MOLECULE
23
 35 37 0 0 0
SMALL
USER_CHARGES
****
From 3DB ct
@<TRIPOS>ATOM
      1 C          -2.1300    2.4960   -0.1620 C.ar    1  LIG1       -0.3644
      2 H          -2.9580    3.1860   -0.3210 H       1  LIG1        0.1534
      3 C          -2.3770    1.1470    0.0640 C.ar    1  LIG1        0.5460
      4 C          -1.2860    0.2930    0.2070 C.ar    1  LIG1       -0.4520
      5 H          -1.4680   -0.7730    0.3360 H       1  LIG1        0.1787
      6 C           0.0370    0.7810    0.1830 C.ar    1  LIG1        0.1830
      7 C           0.2870    2.1610    0.0440 C.ar    1  LIG1       -0.1614
      8 C          -0.8220    2.9980   -0.1630 C.ar    1  LIG1        0.0191
      9 H          -0.7070    4.0720   -0.2940 H       1  LIG1        0.1045
     10 N           1.5990    2.7400    0.0990 N.am    1  LIG1       -0.1835
     11 C           2.6370    2.2350    0.8850 C.2     1  LIG1        0.4126
     12 C           2.2980    1.0700    1.8080 C.3     1  LIG1        0.0607
     13 H           3.1290    0.9390    2.5100 H       1  LIG1        0.0620
     14 H           1.4090    1.2780    2.4140 H       1  LIG1        0.0310
     15 N           2.1790   -0.1430    0.9980 N.2     1  LIG1       -0.3898
     16 C           1.1350   -0.2350    0.2380 C.2     1  LIG1        0.2304
     17 C           1.0370   -1.4450   -0.6420 C.ar    1  LIG1       -0.0038
     18 C           0.5410   -1.3500   -1.9490 C.ar    1  LIG1       -0.1292
     19 H           0.2140   -0.3980   -2.3600 H       1  LIG1        0.1125
     20 C           0.4760   -2.4890   -2.7550 C.ar    1  LIG1       -0.0906
     21 H           0.0880   -2.4150   -3.7700 H       1  LIG1        0.0992
     22 C           0.9110   -3.7200   -2.2640 C.ar    1  LIG1       -0.1000
     23 H           0.8590   -4.6060   -2.8950 H       1  LIG1        0.1013
     24 C           1.4180   -3.8160   -0.9690 C.ar    1  LIG1       -0.0867
     25 H           1.7630   -4.7760   -0.5880 H       1  LIG1        0.1006
     26 C           1.4870   -2.6800   -0.1590 C.ar    1  LIG1       -0.1166
     27 H           1.8860   -2.7670    0.8490 H       1  LIG1        0.1240
     28 O           3.7760    2.7200    0.8850 O.2     1  LIG1       -0.4004
     29 C           1.8460    3.9780   -0.6370 C.3     1  LIG1       -0.0944
     30 H           2.9150    4.1260   -0.8140 H       1  LIG1        0.0920
     31 H           1.4810    4.8230   -0.0450 H       1  LIG1        0.0482
     32 H           1.3490    3.9460   -1.6120 H       1  LIG1        0.0731
     33 N          -3.6640    0.6480    0.0180 N.pl3   1  LIG1       -0.8944
     34 H          -3.8600   -0.3060    0.3110 H       1  LIG1        0.3680
     35 H          -4.4610    1.2810    0.0430 H       1  LIG1        0.3669
@<TRIPOS>BOND
     1     2     1    1
     2     1     3   ar
     3     3     4   ar
     4     4     5    1
     5     4     6   ar
     6     6     7   ar
     7     7     8   ar
     8     8     9    1
     9     8     1   ar
    10     7    10    1
    11    10    11   am
    12    11    12    1
    13    12    13    1
    14    12    14    1
    15    12    15    1
    16    15    16    2
    17    16     6    1
    18    16    17    1
    19    17    18   ar
    20    18    19    1
    21    18    20   ar
    22    20    21    1
    23    20    22   ar
    24    22    23    1
    25    22    24   ar
    26    24    25    1
    27    24    26   ar
    28    26    27    1
    29    26    17   ar
    30    11    28    2
    31    10    29    1
    32    29    30    1
    33    29    31    1
    34    29    32    1
    35     3    33    1
    36    33    34    1
    37    33    35    1
