@<TRIPOS>MOLECULE
24
 30 32 0 0 0
SMALL
USER_CHARGES
****
From 3DB ct
@<TRIPOS>ATOM
      1 C          -2.1010    2.4910   -0.2280 C.ar    1  LIG1       -0.0465
      2 H          -2.9330    3.1700   -0.4050 H       1  LIG1        0.1101
      3 C          -2.3350    1.1290   -0.0710 C.ar    1  LIG1       -0.1194
      4 H          -3.3490    0.7390   -0.1280 H       1  LIG1        0.1077
      5 C          -1.2630    0.2610    0.1360 C.ar    1  LIG1       -0.1174
      6 H          -1.4720   -0.8040    0.2280 H       1  LIG1        0.1269
      7 C           0.0550    0.7490    0.2030 C.ar    1  LIG1       -0.1103
      8 C           0.2820    2.1340    0.1130 C.ar    1  LIG1        0.2747
      9 C          -0.8000    2.9880   -0.1430 C.ar    1  LIG1       -0.2291
     10 H          -0.6460    4.0620   -0.2460 H       1  LIG1        0.1302
     11 N           1.5380    2.7530    0.2430 N.am    1  LIG1       -0.5990
     12 H           1.6440    3.6930   -0.1280 H       1  LIG1        0.3291
     13 C           2.6300    2.2760    0.9200 C.2     1  LIG1        0.5111
     14 C           2.4270    1.0340    1.7730 C.3     1  LIG1        0.0572
     15 H           3.3230    0.8950    2.3890 H       1  LIG1        0.0626
     16 H           1.5880    1.1680    2.4650 H       1  LIG1        0.0313
     17 N           2.2650   -0.1400    0.9190 N.2     1  LIG1       -0.4184
     18 C           1.1730   -0.2480    0.2340 C.2     1  LIG1        0.4043
     19 C           1.0440   -1.4580   -0.6280 C.ar    1  LIG1       -0.2528
     20 C           1.4640   -2.7070   -0.1550 C.ar    1  LIG1       -0.0419
     21 H           1.8890   -2.8140    0.8410 H       1  LIG1        0.1275
     22 C           1.3270   -3.8370   -0.9650 C.ar    1  LIG1       -0.1275
     23 H           1.6530   -4.8100   -0.6000 H       1  LIG1        0.1099
     24 C           0.7690   -3.7230   -2.2400 C.ar    1  LIG1       -0.0360
     25 H           0.6650   -4.6060   -2.8690 H       1  LIG1        0.1092
     26 C           0.3450   -2.4790   -2.7090 C.ar    1  LIG1       -0.2689
     27 H          -0.0870   -2.3840   -3.7010 H       1  LIG1        0.1537
     28 C           0.4810   -1.3530   -1.9010 C.ar    1  LIG1        0.4032
     29 F           0.0870   -0.1650   -2.3860 F       1  LIG1       -0.2584
     30 O           3.7060    2.8830    0.8850 O.2     1  LIG1       -0.4232
@<TRIPOS>BOND
     1     2     1    1
     2     1     3   ar
     3     3     4    1
     4     3     5   ar
     5     5     6    1
     6     5     7   ar
     7     7     8   ar
     8     8     9   ar
     9     9    10    1
    10     9     1   ar
    11     8    11    1
    12    11    12    1
    13    11    13   am
    14    13    14    1
    15    14    15    1
    16    14    16    1
    17    14    17    1
    18    17    18    2
    19    18     7    1
    20    18    19    1
    21    19    20   ar
    22    20    21    1
    23    20    22   ar
    24    22    23    1
    25    22    24   ar
    26    24    25    1
    27    24    26   ar
    28    26    27    1
    29    26    28   ar
    30    28    19   ar
    31    28    29    1
    32    13    30    2
