@<TRIPOS>MOLECULE
27
 34 36 0 0 0
SMALL
USER_CHARGES
****
From 3DB ct
@<TRIPOS>ATOM
      1 C          -2.1340    2.5050   -0.1520 C.ar    1  LIG1       -0.1243
      2 H          -2.9650    3.1970   -0.2880 H       1  LIG1        0.1435
      3 C          -2.3680    1.1460    0.0360 C.ar    1  LIG1        0.1097
      4 C          -1.2820    0.2840    0.2020 C.ar    1  LIG1       -0.2044
      5 H          -1.4670   -0.7800    0.3390 H       1  LIG1        0.1688
      6 C           0.0390    0.7780    0.1810 C.ar    1  LIG1        0.0603
      7 C           0.2850    2.1610    0.0470 C.ar    1  LIG1        0.0346
      8 C          -0.8260    3.0030   -0.1480 C.ar    1  LIG1       -0.1184
      9 H          -0.7080    4.0800   -0.2610 H       1  LIG1        0.1184
     10 N           1.5960    2.7400    0.1010 N.am    1  LIG1       -0.2327
     11 C           2.6370    2.2370    0.8850 C.2     1  LIG1        0.4197
     12 C           2.3010    1.0710    1.8070 C.3     1  LIG1        0.0642
     13 H           3.1320    0.9400    2.5090 H       1  LIG1        0.0646
     14 H           1.4120    1.2760    2.4130 H       1  LIG1        0.0280
     15 N           2.1830   -0.1420    0.9970 N.2     1  LIG1       -0.3851
     16 C           1.1390   -0.2360    0.2360 C.2     1  LIG1        0.2341
     17 C           1.0420   -1.4460   -0.6430 C.ar    1  LIG1       -0.0092
     18 C           0.5430   -1.3510   -1.9490 C.ar    1  LIG1       -0.1355
     19 H           0.2190   -0.3980   -2.3610 H       1  LIG1        0.1061
     20 C           0.4710   -2.4910   -2.7520 C.ar    1  LIG1       -0.0762
     21 H           0.0820   -2.4180   -3.7660 H       1  LIG1        0.0999
     22 C           0.9030   -3.7230   -2.2600 C.ar    1  LIG1       -0.1059
     23 H           0.8470   -4.6100   -2.8890 H       1  LIG1        0.1040
     24 C           1.4140   -3.8180   -0.9660 C.ar    1  LIG1       -0.0629
     25 H           1.7560   -4.7790   -0.5850 H       1  LIG1        0.0979
     26 C           1.4890   -2.6810   -0.1590 C.ar    1  LIG1       -0.1347
     27 H           1.8890   -2.7670    0.8500 H       1  LIG1        0.1302
     28 O           3.7750    2.7240    0.8830 O.2     1  LIG1       -0.3847
     29 C           1.8420    3.9790   -0.6350 C.3     1  LIG1       -0.0885
     30 H           2.9100    4.1230   -0.8200 H       1  LIG1        0.0962
     31 H           1.4850    4.8240   -0.0380 H       1  LIG1        0.0533
     32 H           1.3370    3.9520   -1.6060 H       1  LIG1        0.0742
     33 C          -3.7090    0.6350    0.0500 C.1     1  LIG1        0.0391
     34 N          -4.7970    0.2200    0.0610 N.1     1  LIG1       -0.1844
@<TRIPOS>BOND
     1     2     1    1
     2     1     3   ar
     3     3     4   ar
     4     4     5    1
     5     4     6   ar
     6     6     7   ar
     7     7     8   ar
     8     8     9    1
     9     8     1   ar
    10     7    10    1
    11    10    11   am
    12    11    12    1
    13    12    13    1
    14    12    14    1
    15    12    15    1
    16    15    16    2
    17    16     6    1
    18    16    17    1
    19    17    18   ar
    20    18    19    1
    21    18    20   ar
    22    20    21    1
    23    20    22   ar
    24    22    23    1
    25    22    24   ar
    26    24    25    1
    27    24    26   ar
    28    26    27    1
    29    26    17   ar
    30    11    28    2
    31    10    29    1
    32    29    30    1
    33    29    31    1
    34    29    32    1
    35     3    33    1
    36    33    34    3
