@<TRIPOS>MOLECULE
33
 38 40 0 0 0
SMALL
USER_CHARGES
****
From 3DB ct
@<TRIPOS>ATOM
      1 C          -2.1480    2.4780   -0.1560 C.ar    1  LIG1        0.1901
      2 H          -2.9890    3.1540   -0.2940 H       1  LIG1        0.0603
      3 C          -2.3550    1.1180    0.0110 C.ar    1  LIG1       -0.4396
      4 C          -1.2700    0.2680    0.1840 C.ar    1  LIG1        0.1348
      5 H          -1.4510   -0.7980    0.3070 H       1  LIG1        0.0667
      6 C           0.0440    0.7800    0.1910 C.ar    1  LIG1       -0.1022
      7 C           0.2770    2.1700    0.0690 C.ar    1  LIG1        0.2683
      8 C          -0.8470    2.9950   -0.1280 C.ar    1  LIG1       -0.2937
      9 H          -0.7590    4.0740   -0.2240 H       1  LIG1        0.1620
     10 N           1.5880    2.7640    0.1280 N.am    1  LIG1       -0.4019
     11 C           2.6440    2.2300    0.8750 C.2     1  LIG1        0.4452
     12 C           2.3040    1.0840    1.8180 C.3     1  LIG1        0.0729
     13 H           3.1330    0.9650    2.5240 H       1  LIG1        0.0647
     14 H           1.4130    1.2980    2.4190 H       1  LIG1        0.0194
     15 N           2.1890   -0.1350    1.0190 N.2     1  LIG1       -0.4038
     16 C           1.1450   -0.2320    0.2610 C.2     1  LIG1        0.3162
     17 C           1.0460   -1.4350   -0.6150 C.ar    1  LIG1       -0.1471
     18 C           1.4120   -2.6940   -0.1230 C.ar    1  LIG1       -0.0685
     19 H           1.7690   -2.8170    0.8970 H       1  LIG1        0.1318
     20 C           1.3060   -3.8190   -0.9450 C.ar    1  LIG1       -0.1213
     21 H           1.5900   -4.7990   -0.5640 H       1  LIG1        0.1129
     22 C           0.8320   -3.6910   -2.2520 C.ar    1  LIG1       -0.0540
     23 H           0.7510   -4.5690   -2.8900 H       1  LIG1        0.1143
     24 C           0.4620   -2.4380   -2.7410 C.ar    1  LIG1       -0.2319
     25 H           0.0950   -2.3310   -3.7580 H       1  LIG1        0.1494
     26 C           0.5670   -1.3160   -1.9220 C.ar    1  LIG1        0.3243
     27 F           0.2290   -0.1210   -2.4290 F       1  LIG1       -0.2434
     28 O           3.8020    2.6620    0.8120 O.2     1  LIG1       -0.3820
     29 C           1.8690    3.9750   -0.6660 C.3     1  LIG1       -0.1222
     30 H           1.1010    4.0870   -1.4420 H       1  LIG1        0.0945
     31 H           2.8050    3.8610   -1.2200 H       1  LIG1        0.1340
     32 C           1.8730    5.2510    0.1950 C.3     1  LIG1        0.2728
     33 H           2.6500    5.1860    0.9640 H       1  LIG1        0.0383
     34 H           0.9130    5.3480    0.7160 H       1  LIG1       -0.0492
     35 N           2.1110    6.4600   -0.6030 N.3     1  LIG1       -0.7188
     36 H           2.0220    7.2720    0.0190 H       1  LIG1        0.2601
     37 H           1.3260    6.5750   -1.2560 H       1  LIG1        0.2610
     38 CL         -3.9530    0.4820   -0.0080 Cl      1  LIG1        0.0856
@<TRIPOS>BOND
     1     2     1    1
     2     1     3   ar
     3     3     4   ar
     4     4     5    1
     5     4     6   ar
     6     6     7   ar
     7     7     8   ar
     8     8     9    1
     9     8     1   ar
    10     7    10    1
    11    10    11   am
    12    11    12    1
    13    12    13    1
    14    12    14    1
    15    12    15    1
    16    15    16    2
    17    16     6    1
    18    16    17    1
    19    17    18   ar
    20    18    19    1
    21    18    20   ar
    22    20    21    1
    23    20    22   ar
    24    22    23    1
    25    22    24   ar
    26    24    25    1
    27    24    26   ar
    28    26    17   ar
    29    26    27    1
    30    11    28    2
    31    10    29    1
    32    29    30    1
    33    29    31    1
    34    29    32    1
    35    32    33    1
    36    32    34    1
    37    32    35    1
    38    35    36    1
    39    35    37    1
    40     3    38    1
