@<TRIPOS>MOLECULE
34
 37 39 0 0 0
SMALL
USER_CHARGES
****
From 3DB ct
@<TRIPOS>ATOM
      1 C          -2.1470    2.4780   -0.1570 C.ar    1  LIG1        0.1779
      2 H          -2.9880    3.1550   -0.2960 H       1  LIG1        0.0644
      3 C          -2.3540    1.1180    0.0090 C.ar    1  LIG1       -0.4359
      4 C          -1.2700    0.2680    0.1830 C.ar    1  LIG1        0.1398
      5 H          -1.4500   -0.7980    0.3060 H       1  LIG1        0.0653
      6 C           0.0440    0.7800    0.1910 C.ar    1  LIG1       -0.1136
      7 C           0.2780    2.1700    0.0700 C.ar    1  LIG1        0.2555
      8 C          -0.8470    2.9950   -0.1280 C.ar    1  LIG1       -0.2681
      9 H          -0.7590    4.0740   -0.2230 H       1  LIG1        0.1578
     10 N           1.5880    2.7640    0.1290 N.am    1  LIG1       -0.4101
     11 C           2.6450    2.2310    0.8750 C.2     1  LIG1        0.4536
     12 C           2.3070    1.0830    1.8170 C.3     1  LIG1        0.0769
     13 H           3.1380    0.9640    2.5210 H       1  LIG1        0.0621
     14 H           1.4170    1.2960    2.4190 H       1  LIG1        0.0218
     15 N           2.1920   -0.1340    1.0160 N.2     1  LIG1       -0.4065
     16 C           1.1460   -0.2320    0.2600 C.2     1  LIG1        0.3182
     17 C           1.0460   -1.4360   -0.6150 C.ar    1  LIG1       -0.1525
     18 C           1.4140   -2.6950   -0.1230 C.ar    1  LIG1       -0.0636
     19 H           1.7720   -2.8160    0.8970 H       1  LIG1        0.1312
     20 C           1.3070   -3.8200   -0.9450 C.ar    1  LIG1       -0.1247
     21 H           1.5920   -4.7990   -0.5640 H       1  LIG1        0.1135
     22 C           0.8310   -3.6930   -2.2510 C.ar    1  LIG1       -0.0527
     23 H           0.7490   -4.5720   -2.8880 H       1  LIG1        0.1144
     24 C           0.4590   -2.4400   -2.7400 C.ar    1  LIG1       -0.2348
     25 H           0.0900   -2.3340   -3.7570 H       1  LIG1        0.1507
     26 C           0.5640   -1.3180   -1.9210 C.ar    1  LIG1        0.3312
     27 F           0.2240   -0.1230   -2.4280 F       1  LIG1       -0.2459
     28 O           3.8010    2.6650    0.8100 O.2     1  LIG1       -0.3908
     29 C           1.8650    3.9800   -0.6550 C.3     1  LIG1       -0.0407
     30 H           1.1030    4.1040   -1.4350 H       1  LIG1        0.0941
     31 H           2.7940    3.8770   -1.2230 H       1  LIG1        0.0964
     32 C           1.8740    5.2500    0.2000 C.3     1  LIG1        0.2480
     33 H           2.6660    5.2140    0.9540 H       1  LIG1        0.0050
     34 H           0.9140    5.3740    0.7120 H       1  LIG1       -0.0284
     35 O           2.0950    6.3960   -0.6250 O.3     1  LIG1       -0.4841
     36 H           2.0850    7.1660   -0.0150 H       1  LIG1        0.2889
     37 CL         -3.9520    0.4820   -0.0100 Cl      1  LIG1        0.0854
@<TRIPOS>BOND
     1     2     1    1
     2     1     3   ar
     3     3     4   ar
     4     4     5    1
     5     4     6   ar
     6     6     7   ar
     7     7     8   ar
     8     8     9    1
     9     8     1   ar
    10     7    10    1
    11    10    11   am
    12    11    12    1
    13    12    13    1
    14    12    14    1
    15    12    15    1
    16    15    16    2
    17    16     6    1
    18    16    17    1
    19    17    18   ar
    20    18    19    1
    21    18    20   ar
    22    20    21    1
    23    20    22   ar
    24    22    23    1
    25    22    24   ar
    26    24    25    1
    27    24    26   ar
    28    26    17   ar
    29    26    27    1
    30    11    28    2
    31    10    29    1
    32    29    30    1
    33    29    31    1
    34    29    32    1
    35    32    33    1
    36    32    34    1
    37    32    35    1
    38    35    36    1
    39     3    37    1
