@<TRIPOS>MOLECULE
37
 30 32 0 0 0
SMALL
USER_CHARGES
****
From 3DB ct
@<TRIPOS>ATOM
      1 C          -2.1010    2.4900   -0.2280 C.ar    1  LIG1       -0.0298
      2 H          -2.9330    3.1690   -0.4060 H       1  LIG1        0.1079
      3 C          -2.3350    1.1290   -0.0710 C.ar    1  LIG1       -0.1293
      4 H          -3.3490    0.7390   -0.1270 H       1  LIG1        0.1082
      5 C          -1.2630    0.2600    0.1360 C.ar    1  LIG1       -0.1115
      6 H          -1.4740   -0.8040    0.2310 H       1  LIG1        0.1333
      7 C           0.0550    0.7490    0.2030 C.ar    1  LIG1       -0.1693
      8 C           0.2820    2.1340    0.1130 C.ar    1  LIG1        0.3367
      9 C          -0.8000    2.9880   -0.1430 C.ar    1  LIG1       -0.2565
     10 H          -0.6470    4.0620   -0.2460 H       1  LIG1        0.1355
     11 N           1.5380    2.7530    0.2440 N.am    1  LIG1       -0.6456
     12 H           1.6440    3.6940   -0.1260 H       1  LIG1        0.3372
     13 C           2.6300    2.2760    0.9210 C.2     1  LIG1        0.5490
     14 C           2.4280    1.0340    1.7730 C.3     1  LIG1        0.0083
     15 H           3.3230    0.8940    2.3880 H       1  LIG1        0.0778
     16 H           1.5880    1.1660    2.4650 H       1  LIG1        0.0400
     17 N           2.2650   -0.1410    0.9170 N.2     1  LIG1       -0.4008
     18 C           1.1740   -0.2470    0.2310 C.2     1  LIG1        0.5356
     19 C           1.0450   -1.4550   -0.6260 C.ar    1  LIG1       -0.5795
     20 C           0.5270   -1.3550   -1.9180 C.ar    1  LIG1        0.5693
     21 C           0.4140   -2.4830   -2.7280 C.ar    1  LIG1       -0.3750
     22 H           0.0080   -2.3880   -3.7320 H       1  LIG1        0.1742
     23 C           0.8280   -3.7260   -2.2480 C.ar    1  LIG1        0.0679
     24 H           0.7420   -4.6100   -2.8770 H       1  LIG1        0.1103
     25 C           1.3540   -3.8340   -0.9600 C.ar    1  LIG1       -0.3327
     26 H           1.6770   -4.7980   -0.5770 H       1  LIG1        0.1654
     27 C           1.4640   -2.6990   -0.1570 C.ar    1  LIG1        0.5177
     28 F           1.9520   -2.8370    1.0850 F       1  LIG1       -0.2466
     29 F           0.1410   -0.1680   -2.4110 F       1  LIG1       -0.2687
     30 O           3.7050    2.8830    0.8860 O.2     1  LIG1       -0.4289
@<TRIPOS>BOND
     1     2     1    1
     2     1     3   ar
     3     3     4    1
     4     3     5   ar
     5     5     6    1
     6     5     7   ar
     7     7     8   ar
     8     8     9   ar
     9     9    10    1
    10     9     1   ar
    11     8    11    1
    12    11    12    1
    13    11    13   am
    14    13    14    1
    15    14    15    1
    16    14    16    1
    17    14    17    1
    18    17    18    2
    19    18     7    1
    20    18    19    1
    21    19    20   ar
    22    20    21   ar
    23    21    22    1
    24    21    23   ar
    25    23    24    1
    26    23    25   ar
    27    25    26    1
    28    25    27   ar
    29    27    19   ar
    30    27    28    1
    31    20    29    1
    32    13    30    2
