@<TRIPOS>MOLECULE
42
 34 37 0 0 0
SMALL
USER_CHARGES
****
From 3DB ct
@<TRIPOS>ATOM
      1 C           0.0880    1.9920    0.2070 C.ar    1  LIG1       -0.1207
      2 C           0.0590    0.6020    0.2000 C.ar    1  LIG1        0.3551
      3 C           1.2330   -0.2820    0.1750 C.2     1  LIG1       -0.0767
      4 N           2.3530   -0.0500    0.7700 N.2     1  LIG1       -0.3831
      5 C           2.4890    1.0950    1.6650 C.3     1  LIG1        0.2165
      6 H           3.4730    1.0280    2.1440 H       1  LIG1        0.0398
      7 H           1.7570    1.0410    2.4820 H       1  LIG1        0.0047
      8 C           2.3940    2.3920    0.9520 C.ar    1  LIG1        0.2514
      9 N           1.2250    2.8020    0.3320 N.ar    1  LIG1       -0.3294
     10 C           1.5030    4.1130   -0.0550 C.ar    1  LIG1        0.2847
     11 N           2.7420    4.4230    0.2980 N.ar    1  LIG1       -0.2130
     12 N           3.2990    3.3480    0.9210 N.ar    1  LIG1       -0.2559
     13 C           0.5850    5.0030   -0.8310 C.3     1  LIG1        0.0551
     14 H          -0.3120    5.2170   -0.2430 H       1  LIG1        0.0812
     15 H           0.2890    4.5250   -1.7700 H       1  LIG1        0.0903
     16 N           1.2120    6.2930   -1.1720 N.3     1  LIG1       -0.5918
     17 H           2.0800    6.0820   -1.6770 H       1  LIG1        0.2390
     18 H           1.5540    6.6990   -0.2930 H       1  LIG1        0.2236
     19 C           1.1180   -1.5160   -0.6390 C.ar    1  LIG1        0.4420
     20 C           1.6810   -2.6970   -0.1360 C.ar    1  LIG1       -0.3497
     21 H           2.1890   -2.7050    0.8270 H       1  LIG1        0.1899
     22 C           1.5840   -3.8790   -0.8700 C.ar    1  LIG1        0.0311
     23 H           2.0200   -4.7980   -0.4820 H       1  LIG1        0.0929
     24 C           0.9270   -3.8840   -2.1010 C.ar    1  LIG1       -0.1821
     25 H           0.8530   -4.8070   -2.6740 H       1  LIG1        0.1230
     26 C           0.3660   -2.7060   -2.6020 C.ar    1  LIG1        0.1200
     27 H          -0.1370   -2.7260   -3.5670 H       1  LIG1        0.0683
     28 C           0.4580   -1.5180   -1.8730 C.ar    1  LIG1       -0.4557
     29 CL         -0.2160   -0.0850   -2.5650 Cl      1  LIG1        0.0809
     30 C          -1.3110    0.1480    0.1200 C.ar    1  LIG1       -0.1757
     31 H          -1.6180   -0.8920    0.0950 H       1  LIG1        0.1593
     32 C          -2.1990    1.1890    0.0650 C.ar    1  LIG1       -0.4529
     33 S          -1.4510    2.7000    0.0950 S.2     1  LIG1        0.2670
     34 CL         -3.9080    1.0810   -0.0410 Cl      1  LIG1        0.1712
@<TRIPOS>BOND
     1     1     2   ar
     2     2     3    1
     3     3     4    2
     4     4     5    1
     5     5     6    1
     6     5     7    1
     7     5     8    1
     8     8     9   ar
     9     9     1    1
    10     9    10   ar
    11    10    11   ar
    12    11    12   ar
    13    12     8   ar
    14    10    13    1
    15    13    14    1
    16    13    15    1
    17    13    16    1
    18    16    17    1
    19    16    18    1
    20     3    19    1
    21    19    20   ar
    22    20    21    1
    23    20    22   ar
    24    22    23    1
    25    22    24   ar
    26    24    25    1
    27    24    26   ar
    28    26    27    1
    29    26    28   ar
    30    28    19   ar
    31    28    29    1
    32     2    30   ar
    33    30    31    1
    34    30    32   ar
    35    32    33   ar
    36    33     1   ar
    37    32    34    1
