@<TRIPOS>MOLECULE
45
 33 35 0 0 0
SMALL
USER_CHARGES
****
From 3DB ct
@<TRIPOS>ATOM
      1 C          -2.1260    2.5210   -0.1950 C.ar    1  LIG1       -0.2149
      2 H          -2.9440    3.2150   -0.3810 H       1  LIG1        0.1403
      3 C          -2.3960    1.2010    0.1380 C.ar    1  LIG1        0.1884
      4 H          -3.4300    0.8720    0.2160 H       1  LIG1        0.0586
      5 C          -1.3450    0.3120    0.3700 C.ar    1  LIG1       -0.6077
      6 C          -0.0050    0.7440    0.2610 C.ar    1  LIG1        0.6306
      7 C           0.2780    2.1070    0.0080 C.ar    1  LIG1       -0.2123
      8 C          -0.8050    2.9690   -0.2530 C.ar    1  LIG1       -0.0153
      9 H          -0.6520    4.0260   -0.4620 H       1  LIG1        0.1127
     10 N           1.6050    2.6590    0.0260 N.am    1  LIG1       -0.1879
     11 C           2.6230    2.2120    0.8760 C.2     1  LIG1        0.4635
     12 C           2.2700    1.0880    1.8450 C.3     1  LIG1       -0.0087
     13 H           3.0950    0.9770    2.5580 H       1  LIG1        0.0856
     14 H           1.3770    1.3230    2.4350 H       1  LIG1        0.0278
     15 N           2.1530   -0.1470    1.0690 N.2     1  LIG1       -0.3221
     16 C           1.1060   -0.2590    0.3160 C.2     1  LIG1       -0.0027
     17 C           1.0450   -1.4350   -0.6030 C.ar    1  LIG1       -0.0532
     18 C           1.4650   -2.6980   -0.1610 C.ar    1  LIG1       -0.0811
     19 H           1.8370   -2.8470    0.8500 H       1  LIG1        0.1379
     20 C           1.3910   -3.7970   -1.0210 C.ar    1  LIG1       -0.1282
     21 H           1.7170   -4.7780   -0.6770 H       1  LIG1        0.1141
     22 C           0.8960   -3.6430   -2.3170 C.ar    1  LIG1       -0.0369
     23 H           0.8400   -4.5020   -2.9840 H       1  LIG1        0.1128
     24 C           0.4700   -2.3900   -2.7560 C.ar    1  LIG1       -0.2886
     25 H           0.0860   -2.2630   -3.7650 H       1  LIG1        0.1640
     26 C           0.5420   -1.2940   -1.9000 C.ar    1  LIG1        0.3378
     27 F           0.1490   -0.0980   -2.3650 F       1  LIG1       -0.2449
     28 O           3.7560    2.7090    0.8840 O.2     1  LIG1       -0.4061
     29 C           1.8860    3.8330   -0.7980 C.3     1  LIG1       -0.1212
     30 H           2.9590    3.9270   -0.9930 H       1  LIG1        0.1017
     31 H           1.5580    4.7310   -0.2660 H       1  LIG1        0.0588
     32 H           1.3790    3.7490   -1.7650 H       1  LIG1        0.0824
     33 CL         -1.7870   -1.2920    0.8520 Cl      1  LIG1        0.1150
@<TRIPOS>BOND
     1     2     1    1
     2     1     3   ar
     3     3     4    1
     4     3     5   ar
     5     5     6   ar
     6     6     7   ar
     7     7     8   ar
     8     8     9    1
     9     8     1   ar
    10     7    10    1
    11    10    11   am
    12    11    12    1
    13    12    13    1
    14    12    14    1
    15    12    15    1
    16    15    16    2
    17    16     6    1
    18    16    17    1
    19    17    18   ar
    20    18    19    1
    21    18    20   ar
    22    20    21    1
    23    20    22   ar
    24    22    23    1
    25    22    24   ar
    26    24    25    1
    27    24    26   ar
    28    26    17   ar
    29    26    27    1
    30    11    28    2
    31    10    29    1
    32    29    30    1
    33    29    31    1
    34    29    32    1
    35     5    33    1
