@<TRIPOS>MOLECULE
46
 36 39 0 0 0
SMALL
USER_CHARGES
****
From 3DB ct
@<TRIPOS>ATOM
      1 C           0.2440    2.2060    0.0940 C.ar    1  LIG1        0.1283
      2 C           0.0530    0.8020    0.1380 C.ar    1  LIG1        0.1649
      3 C           1.1270   -0.2410    0.1420 C.2     1  LIG1       -0.4062
      4 C           2.2290   -0.1070    0.9070 C.2     1  LIG1        0.1673
      5 H           2.9990   -0.8780    0.9070 H       1  LIG1        0.0619
      6 C           2.5430    1.0890    1.7470 C.3     1  LIG1       -0.2926
      7 H           3.5190    0.9320    2.2220 H       1  LIG1        0.1122
      8 H           1.8210    1.1780    2.5670 H       1  LIG1        0.1042
      9 C           2.5950    2.3430    0.9560 C.ar    1  LIG1        0.3033
     10 N           1.5350    2.8010    0.1940 N.ar    1  LIG1       -0.2624
     11 C           2.0170    3.9760   -0.3740 C.ar    1  LIG1        0.3183
     12 N           3.2370    4.2160    0.0730 N.ar    1  LIG1       -0.2518
     13 N           3.5990    3.1960    0.9010 N.ar    1  LIG1       -0.2457
     14 C           1.3360    4.7850   -1.4170 C.3     1  LIG1       -0.2959
     15 H           2.0810    5.3040   -2.0290 H       1  LIG1        0.1049
     16 H           0.6990    5.5480   -0.9610 H       1  LIG1        0.0973
     17 H           0.7390    4.1650   -2.0920 H       1  LIG1        0.1034
     18 C           1.0620   -1.4850   -0.6740 C.ar    1  LIG1        0.1281
     19 C           0.5420   -1.4330   -1.9750 C.ar    1  LIG1       -0.1529
     20 H           0.2030   -0.4880   -2.3970 H       1  LIG1        0.1290
     21 C           0.4570   -2.5920   -2.7500 C.ar    1  LIG1       -0.1205
     22 H           0.0550   -2.5420   -3.7600 H       1  LIG1        0.1130
     23 C           0.8860   -3.8130   -2.2300 C.ar    1  LIG1       -0.0725
     24 H           0.8180   -4.7160   -2.8350 H       1  LIG1        0.1032
     25 C           1.3980   -3.8770   -0.9360 C.ar    1  LIG1       -0.1492
     26 H           1.7300   -4.8310   -0.5280 H       1  LIG1        0.1166
     27 C           1.4850   -2.7200   -0.1590 C.ar    1  LIG1       -0.0700
     28 H           1.8790   -2.7900    0.8540 H       1  LIG1        0.0943
     29 C          -1.2720    0.3140    0.0880 C.ar    1  LIG1        0.1244
     30 H          -1.4620   -0.7580    0.1210 H       1  LIG1        0.0755
     31 C          -2.3640    1.1750   -0.0080 C.ar    1  LIG1       -0.4559
     32 C          -2.1690    2.5460   -0.0520 C.ar    1  LIG1        0.1944
     33 H          -3.0150    3.2270   -0.1120 H       1  LIG1        0.0625
     34 C          -0.8730    3.0600    0.0030 C.ar    1  LIG1       -0.2688
     35 H          -0.7720    4.1420    0.0290 H       1  LIG1        0.1444
     36 CL         -3.9600    0.5340   -0.0660 Cl      1  LIG1        0.0932
@<TRIPOS>BOND
     1     1     2   ar
     2     2     3    1
     3     3     4    2
     4     4     5    1
     5     4     6    1
     6     6     7    1
     7     6     8    1
     8     6     9    1
     9     9    10   ar
    10    10     1    1
    11    10    11   ar
    12    11    12   ar
    13    12    13   ar
    14    13     9   ar
    15    11    14    1
    16    14    15    1
    17    14    16    1
    18    14    17    1
    19     3    18    1
    20    18    19   ar
    21    19    20    1
    22    19    21   ar
    23    21    22    1
    24    21    23   ar
    25    23    24    1
    26    23    25   ar
    27    25    26    1
    28    25    27   ar
    29    27    28    1
    30    27    18   ar
    31     2    29   ar
    32    29    30    1
    33    29    31   ar
    34    31    32   ar
    35    32    33    1
    36    32    34   ar
    37    34    35    1
    38    34     1   ar
    39    31    36    1
