@<TRIPOS>MOLECULE
47
 36 39 0 0 0
SMALL
USER_CHARGES
****
From 3DB ct
@<TRIPOS>ATOM
      1 C           0.2440    2.2040    0.0920 C.ar    1  LIG1        0.1561
      2 C           0.0520    0.8010    0.1410 C.ar    1  LIG1        0.1075
      3 C           1.1260   -0.2420    0.1500 C.2     1  LIG1       -0.2698
      4 C           2.2300   -0.1060    0.9100 C.2     1  LIG1        0.1227
      5 H           2.9980   -0.8790    0.9140 H       1  LIG1        0.0715
      6 C           2.5450    1.0920    1.7470 C.3     1  LIG1       -0.2726
      7 H           3.5220    0.9360    2.2210 H       1  LIG1        0.1103
      8 H           1.8240    1.1830    2.5680 H       1  LIG1        0.0966
      9 C           2.5960    2.3430    0.9520 C.ar    1  LIG1        0.3103
     10 N           1.5350    2.8000    0.1900 N.ar    1  LIG1       -0.2851
     11 C           2.0180    3.9720   -0.3830 C.ar    1  LIG1        0.3313
     12 N           3.2380    4.2130    0.0630 N.ar    1  LIG1       -0.2527
     13 N           3.6010    3.1950    0.8940 N.ar    1  LIG1       -0.2503
     14 C           1.3370    4.7770   -1.4280 C.3     1  LIG1       -0.3002
     15 H           2.0820    5.2950   -2.0420 H       1  LIG1        0.1053
     16 H           0.6990    5.5420   -0.9750 H       1  LIG1        0.0964
     17 H           0.7400    4.1550   -2.1010 H       1  LIG1        0.1084
     18 C           1.0610   -1.4850   -0.6650 C.ar    1  LIG1       -0.1034
     19 C           1.4770   -2.7000   -0.1000 C.ar    1  LIG1        0.0192
     20 H           1.8310   -2.7380    0.9290 H       1  LIG1        0.0945
     21 C           1.4390   -3.8790   -0.8500 C.ar    1  LIG1       -0.2149
     22 H           1.7620   -4.8170   -0.4020 H       1  LIG1        0.1322
     23 C           0.9890   -3.8570   -2.1710 C.ar    1  LIG1       -0.0041
     24 H           0.9610   -4.7770   -2.7530 H       1  LIG1        0.1100
     25 C           0.5780   -2.6550   -2.7450 C.ar    1  LIG1       -0.2958
     26 H           0.2310   -2.6270   -3.7740 H       1  LIG1        0.1652
     27 C           0.6180   -1.4820   -1.9940 C.ar    1  LIG1        0.3719
     28 F           0.2320   -0.3370   -2.5780 F       1  LIG1       -0.2419
     29 C          -1.2740    0.3130    0.0910 C.ar    1  LIG1        0.1428
     30 H          -1.4660   -0.7580    0.1300 H       1  LIG1        0.0661
     31 C          -2.3650    1.1750   -0.0080 C.ar    1  LIG1       -0.4563
     32 C          -2.1690    2.5460   -0.0570 C.ar    1  LIG1        0.1981
     33 H          -3.0140    3.2270   -0.1200 H       1  LIG1        0.0612
     34 C          -0.8720    3.0590   -0.0030 C.ar    1  LIG1       -0.2626
     35 H          -0.7710    4.1410    0.0200 H       1  LIG1        0.1417
     36 CL         -3.9610    0.5340   -0.0650 Cl      1  LIG1        0.0906
@<TRIPOS>BOND
     1     1     2   ar
     2     2     3    1
     3     3     4    2
     4     4     5    1
     5     4     6    1
     6     6     7    1
     7     6     8    1
     8     6     9    1
     9     9    10   ar
    10    10     1    1
    11    10    11   ar
    12    11    12   ar
    13    12    13   ar
    14    13     9   ar
    15    11    14    1
    16    14    15    1
    17    14    16    1
    18    14    17    1
    19     3    18    1
    20    18    19   ar
    21    19    20    1
    22    19    21   ar
    23    21    22    1
    24    21    23   ar
    25    23    24    1
    26    23    25   ar
    27    25    26    1
    28    25    27   ar
    29    27    18   ar
    30    27    28    1
    31     2    29   ar
    32    29    30    1
    33    29    31   ar
    34    31    32   ar
    35    32    33    1
    36    32    34   ar
    37    34    35    1
    38    34     1   ar
    39    31    36    1
