@<TRIPOS>MOLECULE
49
 40 43 0 0 0
SMALL
USER_CHARGES
****
From 3DB ct
@<TRIPOS>ATOM
      1 C           0.2690    2.1210    0.0570 C.ar    1  LIG1        0.1007
      2 C           0.0040    0.7590    0.2400 C.ar    1  LIG1       -0.0818
      3 C           1.0300   -0.3100    0.2950 C.2     1  LIG1        0.4467
      4 N           2.2250   -0.0830    0.9360 N.am    1  LIG1       -0.2690
      5 C           2.5690    1.0600    1.7780 C.3     1  LIG1        0.1985
      6 H           1.7900    1.1660    2.5430 H       1  LIG1        0.0584
      7 C           2.6330    2.2860    0.9310 C.ar    1  LIG1       -0.2217
      8 N           1.5760    2.6670    0.1120 N.ar    1  LIG1       -0.0382
      9 C           1.9910    3.7840   -0.5740 C.ar    1  LIG1        0.0829
     10 H           1.4030    4.2430   -1.3590 H       1  LIG1        0.1773
     11 N           3.1560    4.2140   -0.1710 N.ar    1  LIG1       -0.3579
     12 C           3.5440    3.3440    0.8320 C.ar    1  LIG1        0.0486
     13 C           4.7270    3.6320    1.6500 C.2     1  LIG1        0.6554
     14 O           5.4280    4.6270    1.5060 O.2     1  LIG1       -0.4473
     15 O           4.9730    2.6500    2.5660 O.3     1  LIG1       -0.4068
     16 C           6.1370    2.8270    3.3830 C.3     1  LIG1        0.2468
     17 H           6.4390    1.8330    3.7290 H       1  LIG1       -0.0105
     18 H           6.9720    3.2320    2.8000 H       1  LIG1        0.0274
     19 C           5.8130    3.7030    4.5780 C.3     1  LIG1       -0.1801
     20 H           6.6750    3.7800    5.2470 H       1  LIG1        0.0466
     21 H           5.5290    4.7130    4.2620 H       1  LIG1        0.0555
     22 H           4.9650    3.2950    5.1360 H       1  LIG1        0.0535
     23 C           3.8900    0.6230    2.4280 C.3     1  LIG1       -0.1410
     24 H           4.0170    1.0360    3.4330 H       1  LIG1        0.0792
     25 H           4.7610    0.8960    1.8190 H       1  LIG1        0.0949
     26 C           3.8000   -0.8940    2.4640 C.3     1  LIG1       -0.1283
     27 H           4.7730   -1.3800    2.5770 H       1  LIG1        0.0678
     28 H           3.1540   -1.2110    3.2910 H       1  LIG1        0.0559
     29 C           3.1440   -1.1940    1.1340 C.3     1  LIG1        0.0195
     30 H           3.8710   -1.1710    0.3150 H       1  LIG1        0.0446
     31 H           2.6370   -2.1640    1.1340 H       1  LIG1        0.0727
     32 O           0.7660   -1.3900   -0.2330 O.2     1  LIG1       -0.4281
     33 C          -1.3330    0.3130    0.2120 C.ar    1  LIG1       -0.0775
     34 H          -1.5540   -0.7480    0.3260 H       1  LIG1        0.1474
     35 C          -2.3890    1.2000    0.0100 C.ar    1  LIG1       -0.1284
     36 H          -3.4120    0.8330   -0.0100 H       1  LIG1        0.1181
     37 C          -2.1240    2.5490   -0.1880 C.ar    1  LIG1       -0.0341
     38 H          -2.9420    3.2460   -0.3490 H       1  LIG1        0.1098
     39 C          -0.8060    3.0080   -0.1710 C.ar    1  LIG1       -0.1832
     40 H          -0.6480    4.0780   -0.2950 H       1  LIG1        0.1256
@<TRIPOS>BOND
     1     1     2   ar
     2     2     3    1
     3     3     4   am
     4     4     5    1
     5     5     6    1
     6     5     7    1
     7     7     8   ar
     8     8     1    1
     9     8     9   ar
    10     9    10    1
    11     9    11   ar
    12    11    12   ar
    13    12     7   ar
    14    12    13    1
    15    13    14    2
    16    13    15    1
    17    15    16    1
    18    16    17    1
    19    16    18    1
    20    16    19    1
    21    19    20    1
    22    19    21    1
    23    19    22    1
    24     5    23    1
    25    23    24    1
    26    23    25    1
    27    23    26    1
    28    26    27    1
    29    26    28    1
    30    26    29    1
    31    29    30    1
    32    29    31    1
    33    29     4    1
    34     3    32    2
    35     2    33   ar
    36    33    34    1
    37    33    35   ar
    38    35    36    1
    39    35    37   ar
    40    37    38    1
    41    37    39   ar
    42    39    40    1
    43    39     1   ar
