@<TRIPOS>MOLECULE
50
 40 43 0 0 0
SMALL
USER_CHARGES
****
From 3DB ct
@<TRIPOS>ATOM
      1 C           0.2680    2.1220    0.0560 C.ar    1  LIG1        0.2073
      2 C           0.0040    0.7590    0.2390 C.ar    1  LIG1       -0.1713
      3 C           1.0320   -0.3080    0.2910 C.2     1  LIG1        0.4317
      4 N           2.2240   -0.0830    0.9370 N.am    1  LIG1       -0.2596
      5 C           2.5670    1.0600    1.7790 C.3     1  LIG1        0.1684
      6 H           1.7860    1.1640    2.5430 H       1  LIG1        0.0620
      7 C           2.6310    2.2860    0.9320 C.ar    1  LIG1       -0.2017
      8 N           1.5760    2.6670    0.1100 N.ar    1  LIG1       -0.0687
      9 C           1.9910    3.7820   -0.5770 C.ar    1  LIG1        0.0865
     10 H           1.4040    4.2400   -1.3630 H       1  LIG1        0.1786
     11 N           3.1560    4.2130   -0.1720 N.ar    1  LIG1       -0.3559
     12 C           3.5430    3.3440    0.8320 C.ar    1  LIG1        0.0570
     13 C           4.7260    3.6340    1.6500 C.2     1  LIG1        0.6426
     14 O           5.4260    4.6290    1.5040 O.2     1  LIG1       -0.4425
     15 O           4.9700    2.6530    2.5680 O.3     1  LIG1       -0.4031
     16 C           6.1290    2.8330    3.3890 C.3     1  LIG1        0.2434
     17 H           6.4270    1.8400    3.7430 H       1  LIG1       -0.0049
     18 H           6.9690    3.2330    2.8110 H       1  LIG1        0.0310
     19 C           5.8000    3.7170    4.5780 C.3     1  LIG1       -0.2072
     20 H           6.6580    3.8000    5.2500 H       1  LIG1        0.0541
     21 H           5.5120    4.7220    4.2540 H       1  LIG1        0.0632
     22 H           4.9520    3.3080    5.1370 H       1  LIG1        0.0617
     23 C           3.8880    0.6240    2.4300 C.3     1  LIG1       -0.1036
     24 H           4.0130    1.0380    3.4340 H       1  LIG1        0.0689
     25 H           4.7580    0.8960    1.8210 H       1  LIG1        0.0829
     26 C           3.7970   -0.8930    2.4680 C.3     1  LIG1       -0.1271
     27 H           4.7690   -1.3790    2.5830 H       1  LIG1        0.0667
     28 H           3.1490   -1.2080    3.2950 H       1  LIG1        0.0549
     29 C           3.1420   -1.1950    1.1370 C.3     1  LIG1        0.0233
     30 H           3.8700   -1.1730    0.3190 H       1  LIG1        0.0452
     31 H           2.6350   -2.1640    1.1370 H       1  LIG1        0.0717
     32 O           0.7670   -1.3840   -0.2430 O.2     1  LIG1       -0.4155
     33 C          -1.3310    0.3080    0.2140 C.ar    1  LIG1        0.1973
     34 H          -1.5460   -0.7540    0.3290 H       1  LIG1        0.0936
     35 C          -2.3810    1.2000    0.0150 C.ar    1  LIG1       -0.4882
     36 C          -2.1230    2.5490   -0.1830 C.ar    1  LIG1        0.2619
     37 H          -2.9400    3.2490   -0.3410 H       1  LIG1        0.0505
     38 C          -0.8050    3.0100   -0.1710 C.ar    1  LIG1       -0.3078
     39 H          -0.6480    4.0800   -0.2960 H       1  LIG1        0.1474
     40 CL         -4.0020    0.6300    0.0010 Cl      1  LIG1        0.1051
@<TRIPOS>BOND
     1     1     2   ar
     2     2     3    1
     3     3     4   am
     4     4     5    1
     5     5     6    1
     6     5     7    1
     7     7     8   ar
     8     8     1    1
     9     8     9   ar
    10     9    10    1
    11     9    11   ar
    12    11    12   ar
    13    12     7   ar
    14    12    13    1
    15    13    14    2
    16    13    15    1
    17    15    16    1
    18    16    17    1
    19    16    18    1
    20    16    19    1
    21    19    20    1
    22    19    21    1
    23    19    22    1
    24     5    23    1
    25    23    24    1
    26    23    25    1
    27    23    26    1
    28    26    27    1
    29    26    28    1
    30    26    29    1
    31    29    30    1
    32    29    31    1
    33    29     4    1
    34     3    32    2
    35     2    33   ar
    36    33    34    1
    37    33    35   ar
    38    35    36   ar
    39    36    37    1
    40    36    38   ar
    41    38    39    1
    42    38     1   ar
    43    35    40    1
