@<TRIPOS>MOLECULE
51
 36 38 0 0 0
SMALL
USER_CHARGES
****
From 3DB ct
@<TRIPOS>ATOM
      1 C           0.1910    2.1750    0.0700 C.ar    1  LIG1        0.1805
      2 C           0.0200    0.7860    0.2390 C.ar    1  LIG1       -0.1502
      3 C           1.1160   -0.2230    0.4020 C.2     1  LIG1        0.5148
      4 N           2.2490    0.0890    1.1360 N.am    1  LIG1       -0.2669
      5 C           2.3440    1.2690    1.9600 C.3     1  LIG1       -0.1420
      6 H           1.4350    1.3570    2.5680 H       1  LIG1        0.1081
      7 H           3.1790    1.1710    2.6570 H       1  LIG1        0.1482
      8 C           2.4810    2.4180    1.0490 C.ar    1  LIG1       -0.0145
      9 N           1.4510    2.8090    0.2210 N.ar    1  LIG1       -0.1195
     10 C           1.8690    3.9740   -0.3790 C.ar    1  LIG1        0.0852
     11 H           1.2620    4.5260   -1.0850 H       1  LIG1        0.1778
     12 N           3.0940    4.3030   -0.0410 N.ar    1  LIG1       -0.3546
     13 C           3.5120    3.3260    0.8450 C.ar    1  LIG1       -0.0007
     14 C           4.8410    3.3140    1.4650 C.2     1  LIG1        0.6166
     15 O           5.6960    4.1680    1.2520 O.2     1  LIG1       -0.4283
     16 O           5.0150    2.2500    2.3040 O.3     1  LIG1       -0.3558
     17 C           6.2930    2.2000    2.9450 C.3     1  LIG1        0.1728
     18 H           7.0820    2.1170    2.1900 H       1  LIG1        0.0295
     19 H           6.4460    3.1060    3.5410 H       1  LIG1        0.0241
     20 C           6.3210    0.9830    3.8500 C.3     1  LIG1       -0.1312
     21 H           7.2850    0.8980    4.3600 H       1  LIG1        0.0394
     22 H           5.5270    1.0430    4.6020 H       1  LIG1        0.0429
     23 H           6.1450    0.0690    3.2720 H       1  LIG1        0.0408
     24 C           3.3360   -0.8710    1.2320 C.3     1  LIG1       -0.0510
     25 H           4.2830   -0.3550    1.0500 H       1  LIG1        0.0582
     26 H           3.3380   -1.2980    2.2390 H       1  LIG1        0.0434
     27 H           3.2320   -1.6800    0.5040 H       1  LIG1        0.0846
     28 O           0.9650   -1.3200   -0.1360 O.2     1  LIG1       -0.4282
     29 C          -1.2720    0.2420    0.0920 C.ar    1  LIG1       -0.0507
     30 H          -1.4240   -0.8330    0.1890 H       1  LIG1        0.1371
     31 C          -2.3700    1.0490   -0.2070 C.ar    1  LIG1       -0.1334
     32 H          -3.3560    0.6050   -0.3170 H       1  LIG1        0.1189
     33 C          -2.1920    2.4140   -0.3890 C.ar    1  LIG1       -0.0277
     34 H          -3.0450    3.0450   -0.6300 H       1  LIG1        0.1099
     35 C          -0.9210    2.9770   -0.2590 C.ar    1  LIG1       -0.2134
     36 H          -0.8360    4.0540   -0.3840 H       1  LIG1        0.1353
@<TRIPOS>BOND
     1     1     2   ar
     2     2     3    1
     3     3     4   am
     4     4     5    1
     5     5     6    1
     6     5     7    1
     7     5     8    1
     8     8     9   ar
     9     9     1    1
    10     9    10   ar
    11    10    11    1
    12    10    12   ar
    13    12    13   ar
    14    13     8   ar
    15    13    14    1
    16    14    15    2
    17    14    16    1
    18    16    17    1
    19    17    18    1
    20    17    19    1
    21    17    20    1
    22    20    21    1
    23    20    22    1
    24    20    23    1
    25     4    24    1
    26    24    25    1
    27    24    26    1
    28    24    27    1
    29     3    28    2
    30     2    29   ar
    31    29    30    1
    32    29    31   ar
    33    31    32    1
    34    31    33   ar
    35    33    34    1
    36    33    35   ar
    37    35    36    1
    38    35     1   ar
