@<TRIPOS>MOLECULE
53
 43 46 0 0 0
SMALL
USER_CHARGES
****
From 3DB ct
@<TRIPOS>ATOM
      1 C           0.2380    2.2030    0.1190 C.ar    1  LIG1        0.0137
      2 C           0.0490    0.8000    0.1540 C.ar    1  LIG1        0.2144
      3 C           1.1230   -0.2440    0.1540 C.2     1  LIG1       -0.2177
      4 C           2.2420   -0.1070    0.8920 C.2     1  LIG1        0.0785
      5 H           3.0120   -0.8780    0.8780 H       1  LIG1        0.0861
      6 C           2.5580    1.0770    1.7410 C.3     1  LIG1       -0.2586
      7 H           3.5070    0.8920    2.2530 H       1  LIG1        0.1206
      8 H           1.8160    1.1700    2.5440 H       1  LIG1        0.1024
      9 C           2.6180    2.3360    0.9540 C.ar    1  LIG1        0.0216
     10 N           1.5210    2.8120    0.2550 N.ar    1  LIG1       -0.0443
     11 C           1.9040    4.0370   -0.2460 C.ar    1  LIG1        0.0569
     12 H           1.2430    4.6540   -0.8410 H       1  LIG1        0.1822
     13 N           3.1550    4.3310    0.0300 N.ar    1  LIG1       -0.3530
     14 C           3.6310    3.2750    0.7870 C.ar    1  LIG1       -0.0325
     15 C           5.0130    3.1840    1.2940 C.2     1  LIG1        0.6378
     16 O           5.8560    4.0550    1.0770 O.2     1  LIG1       -0.4398
     17 O           5.3640    2.1130    2.0780 O.3     1  LIG1       -0.3902
     18 C           6.6990    1.9670    2.6040 C.3     1  LIG1        0.2424
     19 H           7.1280    2.9430    2.8520 H       1  LIG1        0.0134
     20 H           7.3170    1.4450    1.8680 H       1  LIG1        0.0091
     21 C           6.6070    1.1250    3.8640 C.3     1  LIG1       -0.1731
     22 H           7.5980    0.9700    4.3010 H       1  LIG1        0.0429
     23 H           6.1610    0.1490    3.6440 H       1  LIG1        0.0526
     24 H           5.9650    1.6100    4.6060 H       1  LIG1        0.0487
     25 C           1.0560   -1.4850   -0.6630 C.ar    1  LIG1       -0.1258
     26 C           1.4940   -2.6980   -0.1110 C.ar    1  LIG1       -0.0242
     27 H           1.8700   -2.7350    0.9100 H       1  LIG1        0.1044
     28 C           1.4470   -3.8750   -0.8640 C.ar    1  LIG1       -0.1837
     29 H           1.7870   -4.8120   -0.4250 H       1  LIG1        0.1249
     30 C           0.9680   -3.8530   -2.1740 C.ar    1  LIG1       -0.0210
     31 H           0.9330   -4.7710   -2.7570 H       1  LIG1        0.1102
     32 C           0.5350   -2.6520   -2.7350 C.ar    1  LIG1       -0.2921
     33 H           0.1640   -2.6230   -3.7560 H       1  LIG1        0.1625
     34 C           0.5830   -1.4810   -1.9820 C.ar    1  LIG1        0.3955
     35 F           0.1730   -0.3370   -2.5520 F       1  LIG1       -0.2501
     36 C          -1.2760    0.3170    0.0690 C.ar    1  LIG1       -0.1647
     37 H          -1.4800   -0.7540    0.1020 H       1  LIG1        0.1351
     38 C          -2.3690    1.1740   -0.0700 C.ar    1  LIG1       -0.1140
     39 H          -3.3770    0.7660   -0.1340 H       1  LIG1        0.1155
     40 C          -2.1660    2.5430   -0.1370 C.ar    1  LIG1       -0.0687
     41 H          -3.0140    3.2170   -0.2470 H       1  LIG1        0.1114
     42 C          -0.8730    3.0570   -0.0460 C.ar    1  LIG1       -0.1535
     43 H          -0.7680    4.1400   -0.0620 H       1  LIG1        0.1240
@<TRIPOS>BOND
     1     1     2   ar
     2     2     3    1
     3     3     4    2
     4     4     5    1
     5     4     6    1
     6     6     7    1
     7     6     8    1
     8     6     9    1
     9     9    10   ar
    10    10     1    1
    11    10    11   ar
    12    11    12    1
    13    11    13   ar
    14    13    14   ar
    15    14     9   ar
    16    14    15    1
    17    15    16    2
    18    15    17    1
    19    17    18    1
    20    18    19    1
    21    18    20    1
    22    18    21    1
    23    21    22    1
    24    21    23    1
    25    21    24    1
    26     3    25    1
    27    25    26   ar
    28    26    27    1
    29    26    28   ar
    30    28    29    1
    31    28    30   ar
    32    30    31    1
    33    30    32   ar
    34    32    33    1
    35    32    34   ar
    36    34    25   ar
    37    34    35    1
    38     2    36   ar
    39    36    37    1
    40    36    38   ar
    41    38    39    1
    42    38    40   ar
    43    40    41    1
    44    40    42   ar
    45    42    43    1
    46    42     1   ar
