@<TRIPOS>MOLECULE
54
 36 38 0 0 0
SMALL
USER_CHARGES
****
From 3DB ct
@<TRIPOS>ATOM
      1 C           0.1830    2.1550    0.0370 C.ar    1  LIG1        0.0012
      2 C           0.0000    0.7750    0.2870 C.ar    1  LIG1        0.2796
      3 C           1.1500   -0.1720    0.3690 C.2     1  LIG1        0.3155
      4 N           2.1820    0.0830    1.2640 N.am    1  LIG1       -0.2334
      5 C           2.2570    1.3050    2.0280 C.3     1  LIG1       -0.2568
      6 H           1.3200    1.4370    2.5830 H       1  LIG1        0.1131
      7 H           3.0530    1.2340    2.7730 H       1  LIG1        0.1890
      8 C           2.4480    2.4070    1.0620 C.ar    1  LIG1        0.0617
      9 N           1.4520    2.7750    0.1790 N.ar    1  LIG1       -0.0901
     10 C           1.9060    3.9020   -0.4620 C.ar    1  LIG1        0.0647
     11 H           1.3260    4.4360   -1.2020 H       1  LIG1        0.1879
     12 N           3.1320    4.2160   -0.1100 N.ar    1  LIG1       -0.3475
     13 C           3.5060    3.2750    0.8330 C.ar    1  LIG1       -0.0233
     14 C           4.8220    3.2530    1.4800 C.2     1  LIG1        0.6198
     15 O           5.7070    4.0690    1.2400 O.2     1  LIG1       -0.4249
     16 O           4.9480    2.2310    2.3760 O.3     1  LIG1       -0.3690
     17 C           6.2050    2.1860    3.0540 C.3     1  LIG1        0.1798
     18 H           7.0160    2.0590    2.3270 H       1  LIG1        0.0314
     19 H           6.3570    3.1140    3.6160 H       1  LIG1        0.0227
     20 C           6.1870    1.0080    4.0090 C.3     1  LIG1       -0.1353
     21 H           7.1320    0.9360    4.5570 H       1  LIG1        0.0411
     22 H           5.3680    1.1060    4.7290 H       1  LIG1        0.0428
     23 H           6.0230    0.0730    3.4650 H       1  LIG1        0.0409
     24 C           3.3760   -0.7470    1.2240 C.3     1  LIG1        0.0518
     25 H           4.1620   -0.2080    0.6860 H       1  LIG1        0.0324
     26 H           3.7030   -0.9510    2.2480 H       1  LIG1        0.0200
     27 H           3.1900   -1.6980    0.7190 H       1  LIG1        0.0622
     28 O           1.1650   -1.1210   -0.4120 O.2     1  LIG1       -0.3748
     29 C          -1.3030    0.2450    0.2500 C.ar    1  LIG1       -0.4528
     30 C          -2.3920    1.0620   -0.0770 C.ar    1  LIG1        0.1437
     31 H          -3.3980    0.6500   -0.1060 H       1  LIG1        0.0643
     32 C          -2.1960    2.4080   -0.3790 C.ar    1  LIG1       -0.1397
     33 H          -3.0480    3.0340   -0.6400 H       1  LIG1        0.1310
     34 C          -0.9160    2.9560   -0.3210 C.ar    1  LIG1       -0.1030
     35 H          -0.8150    4.0230   -0.5140 H       1  LIG1        0.1223
     36 CL         -1.6680   -1.3980    0.6570 Cl      1  LIG1        0.1319
@<TRIPOS>BOND
     1     1     2   ar
     2     2     3    1
     3     3     4   am
     4     4     5    1
     5     5     6    1
     6     5     7    1
     7     5     8    1
     8     8     9   ar
     9     9     1    1
    10     9    10   ar
    11    10    11    1
    12    10    12   ar
    13    12    13   ar
    14    13     8   ar
    15    13    14    1
    16    14    15    2
    17    14    16    1
    18    16    17    1
    19    17    18    1
    20    17    19    1
    21    17    20    1
    22    20    21    1
    23    20    22    1
    24    20    23    1
    25     4    24    1
    26    24    25    1
    27    24    26    1
    28    24    27    1
    29     3    28    2
    30     2    29   ar
    31    29    30   ar
    32    30    31    1
    33    30    32   ar
    34    32    33    1
    35    32    34   ar
    36    34    35    1
    37    34     1   ar
    38    29    36    1
