@<TRIPOS>MOLECULE
56
 42 45 0 0 0
SMALL
USER_CHARGES
****
From 3DB ct
@<TRIPOS>ATOM
      1 C           0.2550    2.1680    0.0680 C.ar    1  LIG1        0.0827
      2 C           0.0490    0.7800    0.1980 C.ar    1  LIG1        0.0103
      3 C           1.1700   -0.2210    0.2240 C.2     1  LIG1        0.1890
      4 N           2.2540   -0.1180    0.9220 N.2     1  LIG1       -0.3633
      5 C           2.4350    1.0420    1.7800 C.3     1  LIG1        0.1218
      6 H           3.3180    0.8690    2.4020 H       1  LIG1        0.0725
      7 H           1.6010    1.1520    2.4850 H       1  LIG1        0.0402
      8 C           2.5960    2.2490    0.9400 C.ar    1  LIG1       -0.1748
      9 N           1.5460    2.7430    0.1910 N.ar    1  LIG1       -0.0331
     10 C           1.9840    3.9340   -0.3430 C.ar    1  LIG1        0.0643
     11 H           1.3580    4.5560   -0.9700 H       1  LIG1        0.1841
     12 N           3.2390    4.1890   -0.0420 N.ar    1  LIG1       -0.3701
     13 C           3.6500    3.1370    0.7640 C.ar    1  LIG1        0.1026
     14 C           4.9970    3.0570    1.3430 C.2     1  LIG1        0.5741
     15 O           5.8760    3.8970    1.1740 O.2     1  LIG1       -0.4265
     16 O           5.1630    1.9240    2.0940 O.3     1  LIG1       -0.3479
     17 C           6.4660    1.7710    2.6750 C.3     1  LIG1        0.1823
     18 H           6.6700    2.6100    3.3480 H       1  LIG1        0.0193
     19 H           7.2220    1.7390    1.8820 H       1  LIG1        0.0309
     20 C           6.4840    0.4700    3.4530 C.3     1  LIG1       -0.1401
     21 H           7.4630    0.3000    3.9090 H       1  LIG1        0.0368
     22 H           6.2460   -0.3750    2.7970 H       1  LIG1        0.0463
     23 H           5.7250    0.4840    4.2420 H       1  LIG1        0.0498
     24 C           1.0460   -1.4370   -0.6440 C.ar    1  LIG1        0.0603
     25 C           1.4800   -2.6740   -0.1510 C.ar    1  LIG1       -0.1550
     26 H           1.8900   -2.7530    0.8540 H       1  LIG1        0.1323
     27 C           1.3770   -3.8170   -0.9440 C.ar    1  LIG1       -0.0603
     28 H           1.7080   -4.7800   -0.5580 H       1  LIG1        0.0992
     29 C           0.8510   -3.7270   -2.2330 C.ar    1  LIG1       -0.1161
     30 H           0.7740   -4.6190   -2.8530 H       1  LIG1        0.1095
     31 C           0.4300   -2.4940   -2.7330 C.ar    1  LIG1       -0.0841
     32 H           0.0280   -2.4250   -3.7420 H       1  LIG1        0.1050
     33 C           0.5300   -1.3460   -1.9430 C.ar    1  LIG1       -0.1537
     34 H           0.2140   -0.3920   -2.3570 H       1  LIG1        0.1069
     35 C          -1.2650    0.2770    0.1910 C.ar    1  LIG1        0.1007
     36 H          -1.4490   -0.7880    0.3170 H       1  LIG1        0.0791
     37 C          -2.3470    1.1330    0.0010 C.ar    1  LIG1       -0.4244
     38 C          -2.1420    2.4950   -0.1860 C.ar    1  LIG1        0.1958
     39 H          -2.9830    3.1660   -0.3410 H       1  LIG1        0.0597
     40 C          -0.8450    3.0150   -0.1550 C.ar    1  LIG1       -0.2403
     41 H          -0.7320    4.0930   -0.2580 H       1  LIG1        0.1397
     42 CL         -3.9470    0.4980   -0.0190 Cl      1  LIG1        0.0949
@<TRIPOS>BOND
     1     1     2   ar
     2     2     3    1
     3     3     4    2
     4     4     5    1
     5     5     6    1
     6     5     7    1
     7     5     8    1
     8     8     9   ar
     9     9     1    1
    10     9    10   ar
    11    10    11    1
    12    10    12   ar
    13    12    13   ar
    14    13     8   ar
    15    13    14    1
    16    14    15    2
    17    14    16    1
    18    16    17    1
    19    17    18    1
    20    17    19    1
    21    17    20    1
    22    20    21    1
    23    20    22    1
    24    20    23    1
    25     3    24    1
    26    24    25   ar
    27    25    26    1
    28    25    27   ar
    29    27    28    1
    30    27    29   ar
    31    29    30    1
    32    29    31   ar
    33    31    32    1
    34    31    33   ar
    35    33    34    1
    36    33    24   ar
    37     2    35   ar
    38    35    36    1
    39    35    37   ar
    40    37    38   ar
    41    38    39    1
    42    38    40   ar
    43    40    41    1
    44    40     1   ar
    45    37    42    1
