@<TRIPOS>MOLECULE
57
 33 35 0 0 0
SMALL
USER_CHARGES
****
From 3DB ct
@<TRIPOS>ATOM
      1 C           0.2670    2.1600    0.1610 C.ar    1  LIG1        0.2165
      2 C           0.0380    0.7640    0.1840 C.ar    1  LIG1        0.2148
      3 C           1.1140   -0.2730    0.1780 C.2     1  LIG1       -0.4275
      4 C           2.2480   -0.1100    0.8840 C.2     1  LIG1        0.0517
      5 H           3.0320   -0.8660    0.8520 H       1  LIG1        0.0790
      6 C           2.5350    1.0620    1.7560 C.3     1  LIG1       -0.2007
      7 H           3.4860    0.9060    2.2770 H       1  LIG1        0.0871
      8 H           1.7670    1.1940    2.5260 H       1  LIG1        0.0897
      9 C           2.6520    2.3160    0.9150 C.2     1  LIG1        0.5567
     10 N           1.5230    2.7850    0.2990 N.am    1  LIG1       -0.5429
     11 H           1.6070    3.7370   -0.0470 H       1  LIG1        0.3160
     12 O           3.7090    2.9540    0.8460 O.2     1  LIG1       -0.4281
     13 C           1.0510   -1.5210   -0.6320 C.ar    1  LIG1        0.5565
     14 C           1.5400   -2.7030   -0.0500 C.ar    1  LIG1       -0.3222
     15 H           1.9440   -2.6920    0.9610 H       1  LIG1        0.1478
     16 C           1.5110   -3.9090   -0.7540 C.ar    1  LIG1        0.0043
     17 H           1.8920   -4.8170   -0.2900 H       1  LIG1        0.1056
     18 C           0.9960   -3.9500   -2.0470 C.ar    1  LIG1       -0.2168
     19 H           0.9740   -4.8900   -2.5960 H       1  LIG1        0.1296
     20 C           0.5100   -2.7850   -2.6410 C.ar    1  LIG1        0.2072
     21 H           0.1150   -2.8280   -3.6540 H       1  LIG1        0.0533
     22 C           0.5370   -1.5740   -1.9410 C.ar    1  LIG1       -0.5782
     23 CL         -0.0570   -0.1650   -2.7520 Cl      1  LIG1        0.1071
     24 C          -1.2920    0.3040    0.0690 C.ar    1  LIG1       -0.2107
     25 H          -1.4970   -0.7650    0.0940 H       1  LIG1        0.2040
     26 C          -2.3580    1.2000   -0.0970 C.ar    1  LIG1       -0.0307
     27 C          -2.1180    2.5710   -0.1710 C.ar    1  LIG1       -0.0957
     28 H          -2.9250    3.2850   -0.3130 H       1  LIG1        0.1721
     29 C          -0.8090    3.0410   -0.0510 C.ar    1  LIG1       -0.2203
     30 H          -0.6420    4.1170   -0.0950 H       1  LIG1        0.1480
     31 N          -3.7310    0.6920   -0.2160 N.pl3   1  LIG1        0.6034
     32 O          -3.9220   -0.5310   -0.0780 O.2     1  LIG1       -0.3901
     33 O          -4.6440    1.5050   -0.4480 O.2     1  LIG1       -0.3865
@<TRIPOS>BOND
     1     1     2   ar
     2     2     3    1
     3     3     4    2
     4     4     5    1
     5     4     6    1
     6     6     7    1
     7     6     8    1
     8     6     9    1
     9     9    10   am
    10    10    11    1
    11    10     1    1
    12     9    12    2
    13     3    13    1
    14    13    14   ar
    15    14    15    1
    16    14    16   ar
    17    16    17    1
    18    16    18   ar
    19    18    19    1
    20    18    20   ar
    21    20    21    1
    22    20    22   ar
    23    22    13   ar
    24    22    23    1
    25     2    24   ar
    26    24    25    1
    27    24    26   ar
    28    26    27   ar
    29    27    28    1
    30    27    29   ar
    31    29    30    1
    32    29     1   ar
    33    26    31    1
    34    31    32    2
    35    31    33    1
