@<TRIPOS>MOLECULE
58
 46 49 0 0 0
SMALL
USER_CHARGES
****
From 3DB ct
@<TRIPOS>ATOM
      1 C           0.2470    2.1110    0.0920 C.ar    1  LIG1        0.1029
      2 C          -0.0100    0.7370    0.1770 C.ar    1  LIG1       -0.0826
      3 C           1.0230   -0.3260    0.2520 C.2     1  LIG1        0.4757
      4 N           2.1700   -0.1230    0.9830 N.am    1  LIG1       -0.3237
      5 C           2.4420    0.9770    1.9000 C.3     1  LIG1        0.1988
      6 H           1.6120    1.0360    2.6160 H       1  LIG1        0.0583
      7 C           2.5500    2.2440    1.1240 C.ar    1  LIG1       -0.1899
      8 N           1.5390    2.6670    0.2670 N.ar    1  LIG1       -0.0776
      9 C           1.9860    3.8220   -0.3290 C.ar    1  LIG1        0.1032
     10 H           1.4370    4.3290   -1.1120 H       1  LIG1        0.1723
     11 N           3.1340    4.2220    0.1500 N.ar    1  LIG1       -0.3771
     12 C           3.4770    3.2920    1.1120 C.ar    1  LIG1        0.0922
     13 C           4.6490    3.5220    1.9620 C.2     1  LIG1        0.6308
     14 O           5.3620    4.5120    1.8710 O.2     1  LIG1       -0.4394
     15 O           4.7960    2.5400    2.8990 O.3     1  LIG1       -0.5143
     16 C           5.8120    2.6520    3.9300 C.3     1  LIG1        0.5911
     17 C           7.2240    2.6860    3.3350 C.3     1  LIG1       -0.3302
     18 H           7.9860    2.5820    4.1150 H       1  LIG1        0.0776
     19 H           7.4260    3.6250    2.8110 H       1  LIG1        0.0958
     20 H           7.3600    1.8810    2.6050 H       1  LIG1        0.0618
     21 C           5.6650    1.3710    4.7660 C.3     1  LIG1       -0.3137
     22 H           6.3740    1.3450    5.6000 H       1  LIG1        0.0775
     23 H           5.8270    0.4810    4.1490 H       1  LIG1        0.0772
     24 H           4.6500    1.2850    5.1710 H       1  LIG1        0.0746
     25 C           5.5430    3.8570    4.8390 C.3     1  LIG1       -0.3270
     26 H           6.2190    3.8660    5.7010 H       1  LIG1        0.0695
     27 H           4.5100    3.8430    5.2070 H       1  LIG1        0.0805
     28 H           5.6740    4.8060    4.3110 H       1  LIG1        0.0980
     29 C           3.7220    0.5230    2.6160 C.3     1  LIG1       -0.0369
     30 H           3.7720    0.8820    3.6470 H       1  LIG1        0.0360
     31 H           4.6290    0.8400    2.0880 H       1  LIG1        0.0696
     32 C           3.6540   -0.9950    2.5670 C.3     1  LIG1       -0.1535
     33 H           4.6240   -1.4750    2.7180 H       1  LIG1        0.0658
     34 H           2.9590   -1.3620    3.3310 H       1  LIG1        0.0585
     35 C           3.0900   -1.2330    1.1820 C.3     1  LIG1        0.0453
     36 H           3.8690   -1.1570    0.4150 H       1  LIG1        0.0381
     37 H           2.6000   -2.2070    1.0970 H       1  LIG1        0.0711
     38 O           0.8070   -1.3820   -0.3420 O.2     1  LIG1       -0.4333
     39 C          -1.3340    0.2800    0.0160 C.ar    1  LIG1       -0.0862
     40 H          -1.5480   -0.7890    0.0490 H       1  LIG1        0.1476
     41 C          -2.3850    1.1650   -0.2200 C.ar    1  LIG1       -0.1197
     42 H          -3.3970    0.7880   -0.3460 H       1  LIG1        0.1165
     43 C          -2.1270    2.5250   -0.3180 C.ar    1  LIG1       -0.0448
     44 H          -2.9400    3.2210   -0.5080 H       1  LIG1        0.1112
     45 C          -0.8210    2.9960   -0.1700 C.ar    1  LIG1       -0.1711
     46 H          -0.6720    4.0730   -0.2240 H       1  LIG1        0.1239
@<TRIPOS>BOND
     1     1     2   ar
     2     2     3    1
     3     3     4   am
     4     4     5    1
     5     5     6    1
     6     5     7    1
     7     7     8   ar
     8     8     1    1
     9     8     9   ar
    10     9    10    1
    11     9    11   ar
    12    11    12   ar
    13    12     7   ar
    14    12    13    1
    15    13    14    2
    16    13    15    1
    17    15    16    1
    18    16    17    1
    19    17    18    1
    20    17    19    1
    21    17    20    1
    22    16    21    1
    23    21    22    1
    24    21    23    1
    25    21    24    1
    26    16    25    1
    27    25    26    1
    28    25    27    1
    29    25    28    1
    30     5    29    1
    31    29    30    1
    32    29    31    1
    33    29    32    1
    34    32    33    1
    35    32    34    1
    36    32    35    1
    37    35    36    1
    38    35    37    1
    39    35     4    1
    40     3    38    2
    41     2    39   ar
    42    39    40    1
    43    39    41   ar
    44    41    42    1
    45    41    43   ar
    46    43    44    1
    47    43    45   ar
    48    45    46    1
    49    45     1   ar
