@<TRIPOS>MOLECULE
59
 43 46 0 0 0
SMALL
USER_CHARGES
****
From 3DB ct
@<TRIPOS>ATOM
      1 C           0.2640    2.0960    0.0080 C.ar    1  LIG1       -0.0101
      2 C          -0.0060    0.7440    0.2720 C.ar    1  LIG1        0.2673
      3 C           1.0650   -0.2770    0.2490 C.2     1  LIG1        0.3407
      4 N           2.2040   -0.0660    0.9870 N.am    1  LIG1       -0.3142
      5 C           2.5210    1.0860    1.8260 C.3     1  LIG1        0.0928
      6 H           1.7240    1.1970    2.5710 H       1  LIG1        0.0627
      7 C           2.5990    2.2970    0.9520 C.ar    1  LIG1       -0.0933
      8 N           1.5740    2.6410    0.0720 N.ar    1  LIG1       -0.0764
      9 C           2.0080    3.7380   -0.6300 C.ar    1  LIG1        0.0993
     10 H           1.4520    4.1640   -1.4560 H       1  LIG1        0.1770
     11 N           3.1440    4.2010   -0.1810 N.ar    1  LIG1       -0.3646
     12 C           3.4980    3.3670    0.8650 C.ar    1  LIG1        0.0208
     13 C           4.6410    3.6980    1.7280 C.2     1  LIG1        0.6540
     14 O           5.3340    4.6980    1.5860 O.2     1  LIG1       -0.4340
     15 O           4.8630    2.7420    2.6770 O.3     1  LIG1       -0.4642
     16 C           5.9870    2.9500    3.5480 C.3     1  LIG1        0.4184
     17 H           6.8210    3.4050    3.0000 H       1  LIG1        0.0154
     18 C           6.4300    1.5790    4.0450 C.3     1  LIG1       -0.3418
     19 H           6.7090    0.9420    3.1990 H       1  LIG1        0.0779
     20 H           5.6150    1.0660    4.5670 H       1  LIG1        0.0809
     21 H           7.2870    1.6580    4.7200 H       1  LIG1        0.0896
     22 C           5.5700    3.8400    4.7140 C.3     1  LIG1       -0.2857
     23 H           5.2490    4.8240    4.3580 H       1  LIG1        0.0639
     24 H           4.7170    3.4070    5.2500 H       1  LIG1        0.0867
     25 H           6.3940    3.9800    5.4200 H       1  LIG1        0.0718
     26 C           3.8330    0.6610    2.5010 C.3     1  LIG1       -0.0155
     27 H           3.9290    1.0620    3.5140 H       1  LIG1        0.0645
     28 H           4.7120    0.9590    1.9170 H       1  LIG1        0.0665
     29 C           3.7790   -0.8590    2.5110 C.3     1  LIG1       -0.2339
     30 H           4.7610   -1.3230    2.6310 H       1  LIG1        0.0812
     31 H           3.1280   -1.2040    3.3240 H       1  LIG1        0.0807
     32 C           3.1500   -1.1530    1.1670 C.3     1  LIG1        0.1235
     33 H           3.8850   -1.0930    0.3560 H       1  LIG1        0.0332
     34 H           2.6630   -2.1320    1.1380 H       1  LIG1        0.0552
     35 O           0.9150   -1.2730   -0.4540 O.2     1  LIG1       -0.3926
     36 C          -1.3450    0.3160    0.3560 C.ar    1  LIG1       -0.4398
     37 C          -2.3930    1.2120    0.1210 C.ar    1  LIG1        0.1291
     38 H          -3.4270    0.8790    0.1890 H       1  LIG1        0.0646
     39 C          -2.1220    2.5360   -0.2080 C.ar    1  LIG1       -0.1281
     40 H          -2.9400    3.2280   -0.3960 H       1  LIG1        0.1281
     41 C          -0.8020    2.9800   -0.2590 C.ar    1  LIG1       -0.1048
     42 H          -0.6370    4.0380   -0.4570 H       1  LIG1        0.1210
     43 CL         -1.8010   -1.2900    0.8210 Cl      1  LIG1        0.1320
@<TRIPOS>BOND
     1     1     2   ar
     2     2     3    1
     3     3     4   am
     4     4     5    1
     5     5     6    1
     6     5     7    1
     7     7     8   ar
     8     8     1    1
     9     8     9   ar
    10     9    10    1
    11     9    11   ar
    12    11    12   ar
    13    12     7   ar
    14    12    13    1
    15    13    14    2
    16    13    15    1
    17    15    16    1
    18    16    17    1
    19    16    18    1
    20    18    19    1
    21    18    20    1
    22    18    21    1
    23    16    22    1
    24    22    23    1
    25    22    24    1
    26    22    25    1
    27     5    26    1
    28    26    27    1
    29    26    28    1
    30    26    29    1
    31    29    30    1
    32    29    31    1
    33    29    32    1
    34    32    33    1
    35    32    34    1
    36    32     4    1
    37     3    35    2
    38     2    36   ar
    39    36    37   ar
    40    37    38    1
    41    37    39   ar
    42    39    40    1
    43    39    41   ar
    44    41    42    1
    45    41     1   ar
    46    36    43    1
