@<TRIPOS>MOLECULE
60
 50 53 0 0 0
SMALL
USER_CHARGES
****
From 3DB ct
@<TRIPOS>ATOM
      1 C           0.2760    2.0990    0.0200 C.ar    1  LIG1        0.1472
      2 C          -0.0020    0.7470    0.2640 C.ar    1  LIG1       -0.1775
      3 C           1.0520   -0.2960    0.2480 C.2     1  LIG1        0.5153
      4 N           2.2100   -0.0880    0.9600 N.am    1  LIG1       -0.3806
      5 C           2.5440    1.0600    1.7980 C.3     1  LIG1        0.2636
      6 H           1.7570    1.1760    2.5530 H       1  LIG1        0.0345
      7 C           2.6240    2.2730    0.9280 C.ar    1  LIG1       -0.1434
      8 N           1.5900    2.6300    0.0660 N.ar    1  LIG1       -0.1219
      9 C           2.0260    3.7230   -0.6430 C.ar    1  LIG1        0.1304
     10 H           1.4600    4.1550   -1.4580 H       1  LIG1        0.1664
     11 N           3.1740    4.1720   -0.2110 N.ar    1  LIG1       -0.3805
     12 C           3.5320    3.3350    0.8320 C.ar    1  LIG1        0.0494
     13 C           4.6830    3.6580    1.6850 C.2     1  LIG1        0.6729
     14 O           5.3760    4.6560    1.5320 O.2     1  LIG1       -0.4456
     15 O           4.9040    2.6990    2.6260 O.3     1  LIG1       -0.5558
     16 C           6.0270    2.7820    3.5370 C.3     1  LIG1        0.6342
     17 C           5.9230    4.0140    4.4410 C.3     1  LIG1       -0.3353
     18 H           6.6830    3.9950    5.2300 H       1  LIG1        0.0697
     19 H           6.0580    4.9450    3.8810 H       1  LIG1        0.0957
     20 H           4.9350    4.0710    4.9100 H       1  LIG1        0.0833
     21 C           5.9130    1.5220    4.4100 C.3     1  LIG1       -0.3423
     22 H           5.9490    0.6160    3.7930 H       1  LIG1        0.0876
     23 H           6.7160    1.4660    5.1520 H       1  LIG1        0.0810
     24 H           4.9520    1.4990    4.9370 H       1  LIG1        0.0803
     25 C           7.3610    2.7360    2.7820 C.3     1  LIG1       -0.3471
     26 H           7.3740    1.9060    2.0680 H       1  LIG1        0.0670
     27 H           7.5350    3.6490    2.2060 H       1  LIG1        0.0968
     28 H           8.2050    2.6180    3.4700 H       1  LIG1        0.0794
     29 C           3.8610    0.6250    2.4580 C.3     1  LIG1       -0.0028
     30 H           3.9750    1.0290    3.4680 H       1  LIG1        0.0241
     31 H           4.7360    0.9110    1.8620 H       1  LIG1        0.0470
     32 C           3.7870   -0.8940    2.4770 C.3     1  LIG1       -0.1655
     33 H           4.7650   -1.3710    2.5890 H       1  LIG1        0.0660
     34 H           3.1410   -1.2280    3.2980 H       1  LIG1        0.0604
     35 C           3.1400   -1.1880    1.1420 C.3     1  LIG1        0.0674
     36 H           3.8670   -1.1490    0.3230 H       1  LIG1        0.0335
     37 H           2.6380   -2.1600    1.1290 H       1  LIG1        0.0636
     38 O           0.8760   -1.3100   -0.4260 O.2     1  LIG1       -0.4167
     39 C          -1.3470    0.3300    0.3280 C.ar    1  LIG1        0.2463
     40 C          -2.3930    1.2400    0.1480 C.ar    1  LIG1       -0.2237
     41 H          -3.4260    0.9140    0.2460 H       1  LIG1        0.1466
     42 C          -2.1120    2.5680   -0.1480 C.ar    1  LIG1       -0.0209
     43 H          -2.9240    3.2760   -0.2950 H       1  LIG1        0.1143
     44 C          -0.7870    2.9980   -0.2140 C.ar    1  LIG1       -0.1995
     45 H          -0.6120    4.0580   -0.3880 H       1  LIG1        0.1292
     46 O          -1.6590   -0.9590    0.6830 O.3     1  LIG1       -0.2666
     47 C          -3.0730   -1.1320    0.8060 C.3     1  LIG1       -0.0056
     48 H          -3.2800   -2.2070    0.7940 H       1  LIG1        0.0821
     49 H          -3.4260   -0.7300    1.7610 H       1  LIG1        0.0372
     50 H          -3.6180   -0.6700   -0.0240 H       1  LIG1        0.0589
@<TRIPOS>BOND
     1     1     2   ar
     2     2     3    1
     3     3     4   am
     4     4     5    1
     5     5     6    1
     6     5     7    1
     7     7     8   ar
     8     8     1    1
     9     8     9   ar
    10     9    10    1
    11     9    11   ar
    12    11    12   ar
    13    12     7   ar
    14    12    13    1
    15    13    14    2
    16    13    15    1
    17    15    16    1
    18    16    17    1
    19    17    18    1
    20    17    19    1
    21    17    20    1
    22    16    21    1
    23    21    22    1
    24    21    23    1
    25    21    24    1
    26    16    25    1
    27    25    26    1
    28    25    27    1
    29    25    28    1
    30     5    29    1
    31    29    30    1
    32    29    31    1
    33    29    32    1
    34    32    33    1
    35    32    34    1
    36    32    35    1
    37    35    36    1
    38    35    37    1
    39    35     4    1
    40     3    38    2
    41     2    39   ar
    42    39    40   ar
    43    40    41    1
    44    40    42   ar
    45    42    43    1
    46    42    44   ar
    47    44    45    1
    48    44     1   ar
    49    39    46    1
    50    46    47    1
    51    47    48    1
    52    47    49    1
    53    47    50    1
