@<TRIPOS>MOLECULE
61
 49 52 0 0 0
SMALL
USER_CHARGES
****
From 3DB ct
@<TRIPOS>ATOM
      1 C           0.2750    2.0990    0.0220 C.ar    1  LIG1        0.1640
      2 C          -0.0090    0.7460    0.2700 C.ar    1  LIG1       -0.2570
      3 C           1.0540   -0.2950    0.2480 C.2     1  LIG1        0.5581
      4 N           2.2140   -0.0860    0.9530 N.am    1  LIG1       -0.3641
      5 C           2.5470    1.0600    1.7940 C.3     1  LIG1        0.2219
      6 H           1.7580    1.1720    2.5480 H       1  LIG1        0.0505
      7 C           2.6260    2.2740    0.9270 C.ar    1  LIG1       -0.1615
      8 N           1.5910    2.6300    0.0670 N.ar    1  LIG1       -0.0852
      9 C           2.0250    3.7260   -0.6390 C.ar    1  LIG1        0.0976
     10 H           1.4600    4.1590   -1.4540 H       1  LIG1        0.1739
     11 N           3.1740    4.1760   -0.2070 N.ar    1  LIG1       -0.3712
     12 C           3.5320    3.3370    0.8340 C.ar    1  LIG1        0.0562
     13 C           4.6820    3.6580    1.6910 C.2     1  LIG1        0.6654
     14 O           5.3740    4.6580    1.5410 O.2     1  LIG1       -0.4472
     15 O           4.9030    2.6970    2.6320 O.3     1  LIG1       -0.5388
     16 C           6.0180    2.7920    3.5520 C.3     1  LIG1        0.6051
     17 C           5.8920    4.0220    4.4570 C.3     1  LIG1       -0.3289
     18 H           6.6400    4.0080    5.2560 H       1  LIG1        0.0702
     19 H           6.0270    4.9550    3.9000 H       1  LIG1        0.0980
     20 H           4.8960    4.0700    4.9120 H       1  LIG1        0.0786
     21 C           5.9160    1.5310    4.4240 C.3     1  LIG1       -0.3207
     22 H           5.9650    0.6250    3.8090 H       1  LIG1        0.0785
     23 H           6.7160    1.4860    5.1710 H       1  LIG1        0.0786
     24 H           4.9530    1.4960    4.9480 H       1  LIG1        0.0775
     25 C           7.3590    2.7610    2.8090 C.3     1  LIG1       -0.3425
     26 H           7.3920    1.9260    2.1010 H       1  LIG1        0.0637
     27 H           7.5260    3.6720    2.2260 H       1  LIG1        0.1007
     28 H           8.1990    2.6610    3.5050 H       1  LIG1        0.0800
     29 C           3.8630    0.6240    2.4560 C.3     1  LIG1       -0.0280
     30 H           3.9740    1.0250    3.4680 H       1  LIG1        0.0368
     31 H           4.7370    0.9160    1.8620 H       1  LIG1        0.0638
     32 C           3.7920   -0.8940    2.4670 C.3     1  LIG1       -0.1631
     33 H           4.7710   -1.3690    2.5820 H       1  LIG1        0.0678
     34 H           3.1420   -1.2330    3.2820 H       1  LIG1        0.0597
     35 C           3.1540   -1.1800    1.1260 C.3     1  LIG1        0.0559
     36 H           3.8850   -1.1210    0.3110 H       1  LIG1        0.0378
     37 H           2.6640   -2.1580    1.0970 H       1  LIG1        0.0652
     38 O           0.8620   -1.3210   -0.4010 O.2     1  LIG1       -0.4415
     39 C          -1.3600    0.3220    0.3590 C.ar    1  LIG1        0.2129
     40 C          -2.3930    1.2450    0.1310 C.ar    1  LIG1       -0.2059
     41 H          -3.4340    0.9270    0.1760 H       1  LIG1        0.1366
     42 C          -2.1060    2.5710   -0.1690 C.ar    1  LIG1       -0.0324
     43 H          -2.9150    3.2760   -0.3460 H       1  LIG1        0.1152
     44 C          -0.7820    2.9990   -0.2200 C.ar    1  LIG1       -0.2097
     45 H          -0.6050    4.0570   -0.4030 H       1  LIG1        0.1320
     46 C          -1.7450   -1.1070    0.6500 C.3     1  LIG1       -0.2678
     47 H          -1.0910   -1.5420    1.4120 H       1  LIG1        0.0886
     48 H          -2.7640   -1.1640    1.0490 H       1  LIG1        0.0658
     49 H          -1.7040   -1.7060   -0.2640 H       1  LIG1        0.1087
@<TRIPOS>BOND
     1     1     2   ar
     2     2     3    1
     3     3     4   am
     4     4     5    1
     5     5     6    1
     6     5     7    1
     7     7     8   ar
     8     8     1    1
     9     8     9   ar
    10     9    10    1
    11     9    11   ar
    12    11    12   ar
    13    12     7   ar
    14    12    13    1
    15    13    14    2
    16    13    15    1
    17    15    16    1
    18    16    17    1
    19    17    18    1
    20    17    19    1
    21    17    20    1
    22    16    21    1
    23    21    22    1
    24    21    23    1
    25    21    24    1
    26    16    25    1
    27    25    26    1
    28    25    27    1
    29    25    28    1
    30     5    29    1
    31    29    30    1
    32    29    31    1
    33    29    32    1
    34    32    33    1
    35    32    34    1
    36    32    35    1
    37    35    36    1
    38    35    37    1
    39    35     4    1
    40     3    38    2
    41     2    39   ar
    42    39    40   ar
    43    40    41    1
    44    40    42   ar
    45    42    43    1
    46    42    44   ar
    47    44    45    1
    48    44     1   ar
    49    39    46    1
    50    46    47    1
    51    46    48    1
    52    46    49    1
