@<TRIPOS>MOLECULE
63
 46 49 0 0 0
SMALL
USER_CHARGES
****
From 3DB ct
@<TRIPOS>ATOM
      1 C           0.2470    2.1270    0.0520 C.ar    1  LIG1        0.0512
      2 C           0.0000    0.7580    0.2340 C.ar    1  LIG1       -0.0496
      3 C           1.0500   -0.2890    0.2810 C.2     1  LIG1        0.5054
      4 N           2.2040   -0.0620    0.9860 N.am    1  LIG1       -0.3418
      5 C           2.5150    1.0950    1.8260 C.3     1  LIG1        0.2521
      6 H           1.7130    1.2020    2.5670 H       1  LIG1        0.0479
      7 C           2.5950    2.3140    0.9670 C.ar    1  LIG1       -0.2233
      8 N           1.5480    2.6900    0.1300 N.ar    1  LIG1       -0.0336
      9 C           1.9730    3.8060   -0.5540 C.ar    1  LIG1        0.0753
     10 H           1.3790    4.2670   -1.3350 H       1  LIG1        0.1798
     11 N           3.1510    4.2220   -0.1600 N.ar    1  LIG1       -0.3649
     12 C           3.5160    3.3630    0.8630 C.ar    1  LIG1        0.0894
     13 C           4.7050    3.6620    1.6700 C.2     1  LIG1        0.6392
     14 O           5.4040    4.6530    1.4800 O.2     1  LIG1       -0.4392
     15 O           4.8690    2.7720    2.6900 O.3     1  LIG1       -0.5161
     16 C           5.9080    2.9450    3.6920 C.3     1  LIG1        0.5966
     17 C           5.7010    4.2430    4.4820 C.3     1  LIG1       -0.3262
     18 H           6.3800    4.3020    5.3400 H       1  LIG1        0.0704
     19 H           4.6700    4.3150    4.8460 H       1  LIG1        0.0809
     20 H           5.8780    5.1280    3.8640 H       1  LIG1        0.0959
     21 C           7.3050    2.8660    3.0680 C.3     1  LIG1       -0.3391
     22 H           8.0860    2.8550    3.8350 H       1  LIG1        0.0802
     23 H           7.5050    3.7150    2.4070 H       1  LIG1        0.0978
     24 H           7.4070    1.9630    2.4560 H       1  LIG1        0.0639
     25 C           5.7340    1.7600    4.6550 C.3     1  LIG1       -0.3209
     26 H           6.4620    1.7890    5.4720 H       1  LIG1        0.0788
     27 H           5.8480    0.8060    4.1270 H       1  LIG1        0.0807
     28 H           4.7270    1.7530    5.0880 H       1  LIG1        0.0763
     29 C           3.8250    0.6830    2.5160 C.3     1  LIG1       -0.0624
     30 H           3.9000    1.0770    3.5320 H       1  LIG1        0.0373
     31 H           4.7090    1.0000    1.9500 H       1  LIG1        0.0713
     32 C           3.7920   -0.8360    2.5170 C.3     1  LIG1       -0.1103
     33 H           4.7800   -1.2850    2.6400 H       1  LIG1        0.0597
     34 H           3.1420   -1.1940    3.3240 H       1  LIG1        0.0482
     35 C           3.1750   -1.1320    1.1680 C.3     1  LIG1        0.0138
     36 H           3.9120   -1.0500    0.3610 H       1  LIG1        0.0466
     37 H           2.7120   -2.1220    1.1280 H       1  LIG1        0.0757
     38 O           0.8410   -1.3490   -0.3130 O.2     1  LIG1       -0.4329
     39 C          -1.3250    0.2840    0.2010 C.ar    1  LIG1       -0.2526
     40 H          -1.5440   -0.7740    0.3240 H       1  LIG1        0.1996
     41 C          -2.3790    1.1620   -0.0110 C.ar    1  LIG1        0.3897
     42 C          -2.1460    2.5120   -0.2170 C.ar    1  LIG1       -0.2204
     43 H          -2.9800    3.1870   -0.3870 H       1  LIG1        0.1660
     44 C          -0.8370    2.9960   -0.1950 C.ar    1  LIG1       -0.1177
     45 H          -0.6930    4.0680   -0.3280 H       1  LIG1        0.1349
     46 F          -3.6350    0.6960   -0.0350 F       1  LIG1       -0.2535
@<TRIPOS>BOND
     1     1     2   ar
     2     2     3    1
     3     3     4   am
     4     4     5    1
     5     5     6    1
     6     5     7    1
     7     7     8   ar
     8     8     1    1
     9     8     9   ar
    10     9    10    1
    11     9    11   ar
    12    11    12   ar
    13    12     7   ar
    14    12    13    1
    15    13    14    2
    16    13    15    1
    17    15    16    1
    18    16    17    1
    19    17    18    1
    20    17    19    1
    21    17    20    1
    22    16    21    1
    23    21    22    1
    24    21    23    1
    25    21    24    1
    26    16    25    1
    27    25    26    1
    28    25    27    1
    29    25    28    1
    30     5    29    1
    31    29    30    1
    32    29    31    1
    33    29    32    1
    34    32    33    1
    35    32    34    1
    36    32    35    1
    37    35    36    1
    38    35    37    1
    39    35     4    1
    40     3    38    2
    41     2    39   ar
    42    39    40    1
    43    39    41   ar
    44    41    42   ar
    45    42    43    1
    46    42    44   ar
    47    44    45    1
    48    44     1   ar
    49    41    46    1
