@<TRIPOS>MOLECULE
67
 52 55 0 0 0
SMALL
USER_CHARGES
****
From 3DB ct
@<TRIPOS>ATOM
      1 C           0.2750    2.0950    0.0150 C.ar    1  LIG1        0.1169
      2 C          -0.0090    0.7400    0.2640 C.ar    1  LIG1       -0.1441
      3 C           1.0630   -0.2900    0.2320 C.2     1  LIG1        0.5248
      4 N           2.2100   -0.0860    0.9590 N.am    1  LIG1       -0.3781
      5 C           2.5370    1.0620    1.8000 C.3     1  LIG1        0.2356
      6 H           1.7430    1.1760    2.5480 H       1  LIG1        0.0398
      7 C           2.6210    2.2710    0.9270 C.ar    1  LIG1       -0.1312
      8 N           1.5910    2.6230    0.0590 N.ar    1  LIG1       -0.1176
      9 C           2.0280    3.7160   -0.6490 C.ar    1  LIG1        0.1322
     10 H           1.4640    4.1470   -1.4660 H       1  LIG1        0.1658
     11 N           3.1740    4.1680   -0.2140 N.ar    1  LIG1       -0.3837
     12 C           3.5290    3.3330    0.8320 C.ar    1  LIG1        0.0540
     13 C           4.6790    3.6540    1.6870 C.2     1  LIG1        0.6396
     14 O           5.3770    4.6490    1.5360 O.2     1  LIG1       -0.4322
     15 O           4.8930    2.6960    2.6320 O.3     1  LIG1       -0.5377
     16 C           6.0070    2.7850    3.5530 C.3     1  LIG1        0.5805
     17 C           5.8850    4.0170    4.4560 C.3     1  LIG1       -0.3249
     18 H           6.6320    4.0000    5.2560 H       1  LIG1        0.0700
     19 H           6.0210    4.9490    3.8980 H       1  LIG1        0.0977
     20 H           4.8880    4.0680    4.9110 H       1  LIG1        0.0763
     21 C           5.8950    1.5240    4.4250 C.3     1  LIG1       -0.2732
     22 H           5.9400    0.6190    3.8080 H       1  LIG1        0.0546
     23 H           6.6930    1.4740    5.1730 H       1  LIG1        0.0696
     24 H           4.9300    1.4950    4.9450 H       1  LIG1        0.0704
     25 C           7.3470    2.7480    2.8110 C.3     1  LIG1       -0.3358
     26 H           7.3770    1.9080    2.1060 H       1  LIG1        0.0739
     27 H           7.5170    3.6550    2.2250 H       1  LIG1        0.0999
     28 H           8.1860    2.6470    3.5090 H       1  LIG1        0.0761
     29 C           3.8490    0.6280    2.4720 C.3     1  LIG1       -0.0636
     30 H           3.9520    1.0280    3.4850 H       1  LIG1        0.0512
     31 H           4.7280    0.9200    1.8850 H       1  LIG1        0.0795
     32 C           3.7820   -0.8910    2.4810 C.3     1  LIG1       -0.1373
     33 H           4.7600   -1.3640    2.6020 H       1  LIG1        0.0591
     34 H           3.1270   -1.2320    3.2910 H       1  LIG1        0.0552
     35 C           3.1530   -1.1770    1.1350 C.3     1  LIG1        0.0630
     36 H           3.8880   -1.1140    0.3250 H       1  LIG1        0.0364
     37 H           2.6650   -2.1560    1.1000 H       1  LIG1        0.0598
     38 O           0.8920   -1.3020   -0.4440 O.2     1  LIG1       -0.4231
     39 C          -1.3600    0.3180    0.3640 C.ar    1  LIG1        0.0063
     40 C          -2.3920    1.2520    0.1580 C.ar    1  LIG1       -0.1233
     41 H          -3.4330    0.9420    0.2280 H       1  LIG1        0.1283
     42 C          -2.1040    2.5760   -0.1480 C.ar    1  LIG1       -0.0728
     43 H          -2.9130    3.2850   -0.3110 H       1  LIG1        0.1170
     44 C          -0.7800    2.9990   -0.2170 C.ar    1  LIG1       -0.1571
     45 H          -0.6010    4.0570   -0.4010 H       1  LIG1        0.1220
     46 C          -1.7680   -1.1040    0.6980 C.3     1  LIG1        0.0157
     47 H          -1.0670   -1.5640    1.4020 H       1  LIG1        0.0400
     48 H          -2.7230   -1.0730    1.2400 H       1  LIG1        0.0073
     49 C          -1.9270   -1.9760   -0.5390 C.3     1  LIG1       -0.0368
     50 H          -2.2060   -2.9940   -0.2480 H       1  LIG1        0.0109
     51 H          -2.7110   -1.5920   -1.2000 H       1  LIG1        0.0060
     52 H          -1.0010   -2.0300   -1.1190 H       1  LIG1        0.0369
@<TRIPOS>BOND
     1     1     2   ar
     2     2     3    1
     3     3     4   am
     4     4     5    1
     5     5     6    1
     6     5     7    1
     7     7     8   ar
     8     8     1    1
     9     8     9   ar
    10     9    10    1
    11     9    11   ar
    12    11    12   ar
    13    12     7   ar
    14    12    13    1
    15    13    14    2
    16    13    15    1
    17    15    16    1
    18    16    17    1
    19    17    18    1
    20    17    19    1
    21    17    20    1
    22    16    21    1
    23    21    22    1
    24    21    23    1
    25    21    24    1
    26    16    25    1
    27    25    26    1
    28    25    27    1
    29    25    28    1
    30     5    29    1
    31    29    30    1
    32    29    31    1
    33    29    32    1
    34    32    33    1
    35    32    34    1
    36    32    35    1
    37    35    36    1
    38    35    37    1
    39    35     4    1
    40     3    38    2
    41     2    39   ar
    42    39    40   ar
    43    40    41    1
    44    40    42   ar
    45    42    43    1
    46    42    44   ar
    47    44    45    1
    48    44     1   ar
    49    39    46    1
    50    46    47    1
    51    46    48    1
    52    46    49    1
    53    49    50    1
    54    49    51    1
    55    49    52    1
