@<TRIPOS>MOLECULE
69
 46 49 0 0 0
SMALL
USER_CHARGES
****
From 3DB ct
@<TRIPOS>ATOM
      1 C           0.2660    2.0950    0.0100 C.ar    1  LIG1       -0.0306
      2 C          -0.0050    0.7420    0.2670 C.ar    1  LIG1        0.2956
      3 C           1.0660   -0.2790    0.2440 C.2     1  LIG1        0.3212
      4 N           2.2020   -0.0700    0.9860 N.am    1  LIG1       -0.2861
      5 C           2.5230    1.0830    1.8230 C.3     1  LIG1       -0.0556
      6 H           1.7270    1.1960    2.5700 H       1  LIG1        0.0913
      7 C           2.6030    2.2940    0.9490 C.ar    1  LIG1       -0.0096
      8 N           1.5760    2.6370    0.0710 N.ar    1  LIG1       -0.0912
      9 C           2.0080    3.7340   -0.6340 C.ar    1  LIG1        0.1235
     10 H           1.4510    4.1580   -1.4600 H       1  LIG1        0.1691
     11 N           3.1410    4.2000   -0.1840 N.ar    1  LIG1       -0.3632
     12 C           3.4980    3.3680    0.8640 C.ar    1  LIG1       -0.0641
     13 C           4.6360    3.7110    1.7280 C.2     1  LIG1        0.7302
     14 O           5.3230    4.7160    1.5890 O.2     1  LIG1       -0.4408
     15 O           4.8720    2.7540    2.6730 O.3     1  LIG1       -0.4376
     16 C           6.0160    2.9900    3.5010 C.3     1  LIG1        0.0612
     17 H           6.8900    3.2250    2.8800 H       1  LIG1        0.0795
     18 H           5.8020    3.8410    4.1580 H       1  LIG1        0.0494
     19 C           6.2890    1.7340    4.3400 C.3     1  LIG1        0.1101
     20 H           5.3750    1.4750    4.8910 H       1  LIG1        0.0501
     21 C           7.4100    1.9950    5.3430 C.3     1  LIG1       -0.3241
     22 H           8.3450    2.2560    4.8360 H       1  LIG1        0.0879
     23 H           7.1460    2.8200    6.0150 H       1  LIG1        0.0716
     24 H           7.5940    1.1090    5.9600 H       1  LIG1        0.0901
     25 C           6.6410    0.5400    3.4480 C.3     1  LIG1       -0.2289
     26 H           6.8450   -0.3500    4.0520 H       1  LIG1        0.0589
     27 H           5.8150    0.2970    2.7700 H       1  LIG1        0.0274
     28 H           7.5280    0.7470    2.8400 H       1  LIG1        0.0847
     29 C           3.8360    0.6550    2.4980 C.3     1  LIG1        0.1298
     30 H           3.9370    1.0610    3.5080 H       1  LIG1        0.0259
     31 H           4.7140    0.9440    1.9080 H       1  LIG1        0.0475
     32 C           3.7700   -0.8650    2.5180 C.3     1  LIG1       -0.2800
     33 H           4.7490   -1.3350    2.6430 H       1  LIG1        0.0847
     34 H           3.1150   -1.2000    3.3310 H       1  LIG1        0.0862
     35 C           3.1420   -1.1620    1.1740 C.3     1  LIG1        0.1535
     36 H           3.8780   -1.1100    0.3650 H       1  LIG1        0.0216
     37 H           2.6480   -2.1380    1.1490 H       1  LIG1        0.0501
     38 O           0.9180   -1.2740   -0.4600 O.2     1  LIG1       -0.3934
     39 C          -1.3460    0.3160    0.3470 C.ar    1  LIG1       -0.4493
     40 C          -2.3930    1.2160    0.1220 C.ar    1  LIG1        0.1358
     41 H          -3.4270    0.8830    0.1880 H       1  LIG1        0.0643
     42 C          -2.1190    2.5410   -0.1960 C.ar    1  LIG1       -0.1397
     43 H          -2.9360    3.2370   -0.3750 H       1  LIG1        0.1302
     44 C          -0.7990    2.9820   -0.2470 C.ar    1  LIG1       -0.0880
     45 H          -0.6320    4.0410   -0.4380 H       1  LIG1        0.1181
     46 CL         -1.8040   -1.2950    0.7920 Cl      1  LIG1        0.1330
@<TRIPOS>BOND
     1     1     2   ar
     2     2     3    1
     3     3     4   am
     4     4     5    1
     5     5     6    1
     6     5     7    1
     7     7     8   ar
     8     8     1    1
     9     8     9   ar
    10     9    10    1
    11     9    11   ar
    12    11    12   ar
    13    12     7   ar
    14    12    13    1
    15    13    14    2
    16    13    15    1
    17    15    16    1
    18    16    17    1
    19    16    18    1
    20    16    19    1
    21    19    20    1
    22    19    21    1
    23    21    22    1
    24    21    23    1
    25    21    24    1
    26    19    25    1
    27    25    26    1
    28    25    27    1
    29    25    28    1
    30     5    29    1
    31    29    30    1
    32    29    31    1
    33    29    32    1
    34    32    33    1
    35    32    34    1
    36    32    35    1
    37    35    36    1
    38    35    37    1
    39    35     4    1
    40     3    38    2
    41     2    39   ar
    42    39    40   ar
    43    40    41    1
    44    40    42   ar
    45    42    43    1
    46    42    44   ar
    47    44    45    1
    48    44     1   ar
    49    39    46    1
