@<TRIPOS>MOLECULE
71
 46 49 0 0 0
SMALL
USER_CHARGES
****
From 3DB ct
@<TRIPOS>ATOM
      1 C           0.2820    2.1030    0.0080 C.ar    1  LIG1        0.1813
      2 C           0.0010    0.7540    0.2450 C.ar    1  LIG1       -0.2989
      3 C           1.0320   -0.3010    0.2700 C.2     1  LIG1        0.5652
      4 N           2.1860   -0.0960    0.9920 N.am    1  LIG1       -0.3897
      5 C           2.5390    1.0680    1.8090 C.3     1  LIG1        0.2922
      6 H           1.7610    1.2100    2.5700 H       1  LIG1        0.0359
      7 C           2.6230    2.2740    0.9220 C.ar    1  LIG1       -0.1718
      8 N           1.5980    2.6250    0.0460 N.ar    1  LIG1       -0.0944
      9 C           2.0450    3.7080   -0.6740 C.ar    1  LIG1        0.1151
     10 H           1.4820    4.1180   -1.5060 H       1  LIG1        0.1710
     11 N           3.1870    4.1700   -0.2260 N.ar    1  LIG1       -0.3747
     12 C           3.4990    3.3640    0.8560 C.ar    1  LIG1        0.0608
     13 C           4.5610    3.7730    1.7840 C.2     1  LIG1        0.6696
     14 O           5.2040    4.8080    1.6570 O.2     1  LIG1       -0.4436
     15 O           4.6280    2.9250    2.8440 O.3     1  LIG1       -0.5587
     16 C           5.3900    3.2350    4.0390 C.3     1  LIG1        0.6136
     17 C           6.8790    3.4270    3.7380 C.3     1  LIG1       -0.3669
     18 H           7.4680    3.4340    4.6600 H       1  LIG1        0.0844
     19 H           7.0640    4.3750    3.2250 H       1  LIG1        0.1068
     20 H           7.2550    2.6330    3.0850 H       1  LIG1        0.0745
     21 C           5.2140    1.9990    4.9310 C.3     1  LIG1       -0.3110
     22 H           5.6720    2.1350    5.9170 H       1  LIG1        0.0755
     23 H           5.6590    1.1100    4.4680 H       1  LIG1        0.0757
     24 H           4.1500    1.7680    5.0710 H       1  LIG1        0.0757
     25 C           4.8000    4.4520    4.7560 C.3     1  LIG1       -0.3006
     26 H           5.2880    4.6060    5.7240 H       1  LIG1        0.0631
     27 H           3.7240    4.3290    4.9230 H       1  LIG1        0.0707
     28 H           4.9230    5.3660    4.1660 H       1  LIG1        0.0891
     29 C           3.8630    0.6390    2.4750 C.3     1  LIG1       -0.0610
     30 H           3.9470    0.9970    3.5050 H       1  LIG1        0.0407
     31 H           4.7420    0.9830    1.9160 H       1  LIG1        0.0707
     32 C           3.8410   -0.8840    2.4450 C.3     1  LIG1       -0.1568
     33 H           4.8400   -1.3220    2.5020 H       1  LIG1        0.0677
     34 H           3.2470   -1.2710    3.2790 H       1  LIG1        0.0609
     35 C           3.1540   -1.1700    1.1340 C.3     1  LIG1        0.0584
     36 H           3.8510   -1.0930    0.2960 H       1  LIG1        0.0362
     37 H           2.6780   -2.1540    1.1090 H       1  LIG1        0.0685
     38 O           0.8360   -1.3340   -0.3720 O.2     1  LIG1       -0.4225
     39 C          -1.3370    0.3340    0.2900 C.ar    1  LIG1        0.4296
     40 C          -2.3860    1.2340    0.1310 C.ar    1  LIG1       -0.2852
     41 H          -3.4140    0.8890    0.1940 H       1  LIG1        0.1638
     42 C          -2.1040    2.5710   -0.1330 C.ar    1  LIG1        0.0160
     43 H          -2.9170    3.2820   -0.2620 H       1  LIG1        0.1190
     44 C          -0.7790    3.0040   -0.2120 C.ar    1  LIG1       -0.2290
     45 H          -0.6030    4.0630   -0.3980 H       1  LIG1        0.1373
     46 F          -1.6450   -0.9570    0.4950 F       1  LIG1       -0.2243
@<TRIPOS>BOND
     1     1     2   ar
     2     2     3    1
     3     3     4   am
     4     4     5    1
     5     5     6    1
     6     5     7    1
     7     7     8   ar
     8     8     1    1
     9     8     9   ar
    10     9    10    1
    11     9    11   ar
    12    11    12   ar
    13    12     7   ar
    14    12    13    1
    15    13    14    2
    16    13    15    1
    17    15    16    1
    18    16    17    1
    19    17    18    1
    20    17    19    1
    21    17    20    1
    22    16    21    1
    23    21    22    1
    24    21    23    1
    25    21    24    1
    26    16    25    1
    27    25    26    1
    28    25    27    1
    29    25    28    1
    30     5    29    1
    31    29    30    1
    32    29    31    1
    33    29    32    1
    34    32    33    1
    35    32    34    1
    36    32    35    1
    37    35    36    1
    38    35    37    1
    39    35     4    1
    40     3    38    2
    41     2    39   ar
    42    39    40   ar
    43    40    41    1
    44    40    42   ar
    45    42    43    1
    46    42    44   ar
    47    44    45    1
    48    44     1   ar
    49    39    46    1
