@<TRIPOS>MOLECULE
72
 44 48 0 0 0
SMALL
USER_CHARGES
****
From 3DB ct
@<TRIPOS>ATOM
      1 C           0.2480    2.1080    0.0300 C.ar    1  LIG1       -0.0125
      2 C           0.0060    0.7400    0.2380 C.ar    1  LIG1        0.2551
      3 C           1.1000   -0.2570    0.2120 C.2     1  LIG1        0.3408
      4 N           2.2070   -0.0490    0.9970 N.am    1  LIG1       -0.3283
      5 C           2.4930    1.1050    1.8430 C.3     1  LIG1        0.0901
      6 H           1.6730    1.2120    2.5630 H       1  LIG1        0.0583
      7 C           2.5840    2.3130    0.9670 C.ar    1  LIG1       -0.0714
      8 N           1.5490    2.6710    0.1060 N.ar    1  LIG1       -0.0940
      9 C           1.9700    3.7820   -0.5830 C.ar    1  LIG1        0.1330
     10 H           1.3910    4.2350   -1.3770 H       1  LIG1        0.1662
     11 N           3.1330    4.2120   -0.1730 N.ar    1  LIG1       -0.3685
     12 C           3.5110    3.3540    0.8450 C.ar    1  LIG1       -0.0351
     13 C           4.7070    3.6350    1.6460 C.2     1  LIG1        0.7183
     14 O           5.4280    4.6120    1.4760 O.2     1  LIG1       -0.4486
     15 O           4.9360    2.6710    2.5830 O.3     1  LIG1       -0.3916
     16 C           6.1010    2.8960    3.3760 C.3     1  LIG1       -0.0335
     17 H           6.9860    2.9380    2.7300 H       1  LIG1        0.1075
     18 H           6.0030    3.8420    3.9210 H       1  LIG1        0.0834
     19 C           6.2110    1.7770    4.3640 C.3     1  LIG1       -0.0613
     20 H           5.3370    1.7150    5.0010 H       1  LIG1        0.1154
     21 C           6.8940    0.4860    3.9900 C.3     1  LIG1       -0.1226
     22 H           7.3270    0.3960    3.0000 H       1  LIG1        0.0857
     23 H           6.4690   -0.4370    4.3700 H       1  LIG1        0.0805
     24 C           7.5450    1.4240    4.9690 C.3     1  LIG1       -0.3094
     25 H           8.4250    1.9670    4.6430 H       1  LIG1        0.1318
     26 H           7.5610    1.1370    6.0140 H       1  LIG1        0.1248
     27 C           3.7830    0.6860    2.5610 C.3     1  LIG1        0.0911
     28 H           3.8590    1.1130    3.5650 H       1  LIG1        0.0075
     29 H           4.6780    0.9570    1.9910 H       1  LIG1        0.0402
     30 C           3.7080   -0.8330    2.5990 C.3     1  LIG1       -0.2795
     31 H           4.6780   -1.3070    2.7700 H       1  LIG1        0.0818
     32 H           3.0170   -1.1530    3.3880 H       1  LIG1        0.0913
     33 C           3.1340   -1.1420    1.2320 C.3     1  LIG1        0.1534
     34 H           3.9030   -1.1020    0.4530 H       1  LIG1        0.0271
     35 H           2.6360   -2.1160    1.1970 H       1  LIG1        0.0490
     36 O           0.9950   -1.2350   -0.5220 O.2     1  LIG1       -0.3938
     37 C          -1.3250    0.2810    0.2890 C.ar    1  LIG1       -0.4236
     38 C          -2.3890    1.1670    0.0870 C.ar    1  LIG1        0.1403
     39 H          -3.4170    0.8110    0.1330 H       1  LIG1        0.0599
     40 C          -2.1440    2.5100   -0.1770 C.ar    1  LIG1       -0.1464
     41 H          -2.9750    3.1930   -0.3360 H       1  LIG1        0.1327
     42 C          -0.8330    2.9810   -0.2040 C.ar    1  LIG1       -0.0904
     43 H          -0.6870    4.0500   -0.3570 H       1  LIG1        0.1182
     44 CL         -1.7550   -1.3540    0.6700 Cl      1  LIG1        0.1268
@<TRIPOS>BOND
     1     1     2   ar
     2     2     3    1
     3     3     4   am
     4     4     5    1
     5     5     6    1
     6     5     7    1
     7     7     8   ar
     8     8     1    1
     9     8     9   ar
    10     9    10    1
    11     9    11   ar
    12    11    12   ar
    13    12     7   ar
    14    12    13    1
    15    13    14    2
    16    13    15    1
    17    15    16    1
    18    16    17    1
    19    16    18    1
    20    16    19    1
    21    19    20    1
    22    19    21    1
    23    21    22    1
    24    21    23    1
    25    21    24    1
    26    24    25    1
    27    24    26    1
    28    24    19    1
    29     5    27    1
    30    27    28    1
    31    27    29    1
    32    27    30    1
    33    30    31    1
    34    30    32    1
    35    30    33    1
    36    33    34    1
    37    33    35    1
    38    33     4    1
    39     3    36    2
    40     2    37   ar
    41    37    38   ar
    42    38    39    1
    43    38    40   ar
    44    40    41    1
    45    40    42   ar
    46    42    43    1
    47    42     1   ar
    48    37    44    1
