@<TRIPOS>MOLECULE
76
 34 37 0 0 0
SMALL
USER_CHARGES
****
From 3DB ct
@<TRIPOS>ATOM
      1 C           0.2450    2.1130    0.0050 C.ar    1  LIG1        0.0837
      2 C          -0.0150    0.7570    0.2770 C.ar    1  LIG1        0.1848
      3 C           1.0560   -0.2610    0.3520 C.2     1  LIG1        0.3378
      4 N           2.0720   -0.0530    1.2320 N.am    1  LIG1       -0.1852
      5 C           2.6280    1.1330    1.8430 C.3     1  LIG1       -0.0936
      6 H           2.1880    1.3280    2.8280 H       1  LIG1        0.1048
      7 C           2.5810    2.3240    0.9240 C.ar    1  LIG1        0.0826
      8 N           1.5430    2.6840    0.0880 N.ar    1  LIG1       -0.1648
      9 C           1.9660    3.8240   -0.5590 C.ar    1  LIG1        0.1294
     10 H           1.3950    4.3000   -1.3460 H       1  LIG1        0.1698
     11 N           3.1210    4.2570   -0.1160 N.ar    1  LIG1       -0.3573
     12 C           3.5040    3.3620    0.8650 C.ar    1  LIG1       -0.0971
     13 C           4.6930    3.5730    1.6990 C.2     1  LIG1        0.6837
     14 O           5.4310    4.5470    1.5920 O.2     1  LIG1       -0.4155
     15 O           4.8960    2.5560    2.5860 O.3     1  LIG1       -0.3584
     16 C           6.0500    2.7140    3.4080 C.3     1  LIG1       -0.0416
     17 H           6.9560    2.7400    2.7960 H       1  LIG1        0.0519
     18 H           5.9650    3.6200    4.0170 H       1  LIG1        0.0727
     19 H           6.1100    1.8520    4.0770 H       1  LIG1        0.0840
     20 C           3.9660    0.3600    1.8810 C.3     1  LIG1        0.1287
     21 H           4.7250    0.6650    1.1510 H       1  LIG1        0.0194
     22 H           4.4350    0.2980    2.8690 H       1  LIG1        0.0342
     23 C           3.2250   -0.9010    1.4630 C.3     1  LIG1       -0.2115
     24 H           3.6120   -1.3920    0.5670 H       1  LIG1        0.1275
     25 H           3.0550   -1.6320    2.2580 H       1  LIG1        0.1070
     26 O           0.9950   -1.2560   -0.3650 O.2     1  LIG1       -0.3809
     27 C          -1.3520    0.3090    0.3060 C.ar    1  LIG1       -0.4034
     28 C          -2.4050    1.1840    0.0230 C.ar    1  LIG1        0.1200
     29 H          -3.4340    0.8330    0.0510 H       1  LIG1        0.0657
     30 C          -2.1430    2.5100   -0.2990 C.ar    1  LIG1       -0.1140
     31 H          -2.9640    3.1880   -0.5200 H       1  LIG1        0.1271
     32 C          -0.8290    2.9740   -0.3040 C.ar    1  LIG1       -0.1438
     33 H          -0.6790    4.0340   -0.5040 H       1  LIG1        0.1275
     34 CL         -1.8020   -1.3040    0.7550 Cl      1  LIG1        0.1246
@<TRIPOS>BOND
     1     1     2   ar
     2     2     3    1
     3     3     4   am
     4     4     5    1
     5     5     6    1
     6     5     7    1
     7     7     8   ar
     8     8     1    1
     9     8     9   ar
    10     9    10    1
    11     9    11   ar
    12    11    12   ar
    13    12     7   ar
    14    12    13    1
    15    13    14    2
    16    13    15    1
    17    15    16    1
    18    16    17    1
    19    16    18    1
    20    16    19    1
    21     5    20    1
    22    20    21    1
    23    20    22    1
    24    20    23    1
    25    23    24    1
    26    23    25    1
    27    23     4    1
    28     3    26    2
    29     2    27   ar
    30    27    28   ar
    31    28    29    1
    32    28    30   ar
    33    30    31    1
    34    30    32   ar
    35    32    33    1
    36    32     1   ar
    37    27    34    1
