@<TRIPOS>MOLECULE
78
 36 38 0 0 0
SMALL
USER_CHARGES
****
From 3DB ct
@<TRIPOS>ATOM
      1 C          -2.1020    2.5130   -0.2080 C.ar    1  LIG1       -0.0533
      2 H          -2.9210    3.2110   -0.3740 H       1  LIG1        0.1260
      3 C          -2.3560    1.1490   -0.0400 C.ar    1  LIG1       -0.0695
      4 C          -1.2760    0.2800    0.1660 C.ar    1  LIG1       -0.1474
      5 H          -1.4730   -0.7860    0.2800 H       1  LIG1        0.1595
      6 C           0.0470    0.7600    0.2030 C.ar    1  LIG1       -0.0920
      7 C           0.2830    2.1400    0.1030 C.ar    1  LIG1        0.2626
      8 C          -0.7940    3.0010   -0.1450 C.ar    1  LIG1       -0.2492
      9 H          -0.6340    4.0730   -0.2540 H       1  LIG1        0.1325
     10 N           1.5450    2.7490    0.2280 N.am    1  LIG1       -0.5838
     11 H           1.6600    3.6860   -0.1500 H       1  LIG1        0.3265
     12 C           2.6280    2.2670    0.9160 C.2     1  LIG1        0.5008
     13 C           2.4070    1.0330    1.7780 C.3     1  LIG1        0.0687
     14 H           3.2960    0.8920    2.4020 H       1  LIG1        0.0581
     15 H           1.5630    1.1790    2.4630 H       1  LIG1        0.0311
     16 N           2.2420   -0.1460    0.9300 N.2     1  LIG1       -0.4017
     17 C           1.1600   -0.2450    0.2270 C.2     1  LIG1        0.3095
     18 C           1.0380   -1.4580   -0.6450 C.ar    1  LIG1       -0.0660
     19 C           0.5280   -1.3640   -1.9460 C.ar    1  LIG1       -0.0753
     20 H           0.2110   -0.4080   -2.3570 H       1  LIG1        0.0992
     21 C           0.4350   -2.5080   -2.7420 C.ar    1  LIG1       -0.1047
     22 H           0.0360   -2.4350   -3.7530 H       1  LIG1        0.1002
     23 C           0.8580   -3.7410   -2.2480 C.ar    1  LIG1       -0.0962
     24 H           0.7850   -4.6310   -2.8710 H       1  LIG1        0.1010
     25 C           1.3810   -3.8360   -0.9580 C.ar    1  LIG1       -0.0679
     26 H           1.7160   -4.7980   -0.5760 H       1  LIG1        0.0960
     27 C           1.4760   -2.6960   -0.1580 C.ar    1  LIG1       -0.1259
     28 H           1.8860   -2.7800    0.8470 H       1  LIG1        0.1288
     29 O           3.7110    2.8610    0.8810 O.2     1  LIG1       -0.4208
     30 C          -3.7680    0.6230   -0.0730 C.3     1  LIG1        0.0269
     31 H          -4.4540    1.3790    0.3300 H       1  LIG1        0.0088
     32 H          -3.8540   -0.2470    0.5900 H       1  LIG1        0.0117
     33 C          -4.1950    0.2390   -1.4810 C.3     1  LIG1       -0.0058
     34 H          -5.2230   -0.1380   -1.4760 H       1  LIG1        0.0038
     35 H          -3.5490   -0.5430   -1.8930 H       1  LIG1        0.0010
     36 H          -4.1530    1.1000   -2.1580 H       1  LIG1        0.0069
@<TRIPOS>BOND
     1     2     1    1
     2     1     3   ar
     3     3     4   ar
     4     4     5    1
     5     4     6   ar
     6     6     7   ar
     7     7     8   ar
     8     8     9    1
     9     8     1   ar
    10     7    10    1
    11    10    11    1
    12    10    12   am
    13    12    13    1
    14    13    14    1
    15    13    15    1
    16    13    16    1
    17    16    17    2
    18    17     6    1
    19    17    18    1
    20    18    19   ar
    21    19    20    1
    22    19    21   ar
    23    21    22    1
    24    21    23   ar
    25    23    24    1
    26    23    25   ar
    27    25    26    1
    28    25    27   ar
    29    27    28    1
    30    27    18   ar
    31    12    29    2
    32     3    30    1
    33    30    31    1
    34    30    32    1
    35    30    33    1
    36    33    34    1
    37    33    35    1
    38    33    36    1
