@<TRIPOS>MOLECULE
79
 32 34 0 0 0
SMALL
USER_CHARGES
****
From 3DB ct
@<TRIPOS>ATOM
      1 C          -2.1030    2.5150   -0.2110 C.ar    1  LIG1       -0.1565
      2 H          -2.9250    3.2070   -0.3850 H       1  LIG1        0.1499
      3 C          -2.3420    1.1530   -0.0360 C.ar    1  LIG1       -0.0335
      4 C          -1.2760    0.2730    0.1660 C.ar    1  LIG1       -0.1304
      5 H          -1.4740   -0.7920    0.2760 H       1  LIG1        0.1662
      6 C           0.0450    0.7570    0.2030 C.ar    1  LIG1       -0.0763
      7 C           0.2820    2.1400    0.1030 C.ar    1  LIG1        0.2170
      8 C          -0.7960    3.0020   -0.1470 C.ar    1  LIG1       -0.1713
      9 H          -0.6340    4.0740   -0.2590 H       1  LIG1        0.1236
     10 N           1.5430    2.7480    0.2280 N.am    1  LIG1       -0.5522
     11 H           1.6590    3.6850   -0.1490 H       1  LIG1        0.3191
     12 C           2.6260    2.2670    0.9160 C.2     1  LIG1        0.4894
     13 C           2.4070    1.0330    1.7780 C.3     1  LIG1        0.0703
     14 H           3.2970    0.8910    2.4010 H       1  LIG1        0.0620
     15 H           1.5630    1.1780    2.4630 H       1  LIG1        0.0325
     16 N           2.2420   -0.1460    0.9300 N.2     1  LIG1       -0.4138
     17 C           1.1600   -0.2450    0.2270 C.2     1  LIG1        0.3340
     18 C           1.0390   -1.4590   -0.6450 C.ar    1  LIG1       -0.0717
     19 C           0.5290   -1.3630   -1.9460 C.ar    1  LIG1       -0.0842
     20 H           0.2130   -0.4070   -2.3570 H       1  LIG1        0.0935
     21 C           0.4340   -2.5060   -2.7420 C.ar    1  LIG1       -0.1002
     22 H           0.0350   -2.4330   -3.7520 H       1  LIG1        0.1035
     23 C           0.8550   -3.7410   -2.2470 C.ar    1  LIG1       -0.0940
     24 H           0.7810   -4.6300   -2.8710 H       1  LIG1        0.1015
     25 C           1.3790   -3.8360   -0.9580 C.ar    1  LIG1       -0.0648
     26 H           1.7130   -4.7990   -0.5760 H       1  LIG1        0.0955
     27 C           1.4770   -2.6960   -0.1580 C.ar    1  LIG1       -0.1180
     28 H           1.8870   -2.7800    0.8470 H       1  LIG1        0.1257
     29 O           3.7080    2.8630    0.8820 O.2     1  LIG1       -0.4110
     30 C          -3.7210    0.6190   -0.0840 C.2     1  LIG1        0.3314
     31 H          -4.5250    1.3530   -0.2630 H       1  LIG1        0.0243
     32 O          -3.9710   -0.5760    0.0660 O.2     1  LIG1       -0.3615
@<TRIPOS>BOND
     1     2     1    1
     2     1     3   ar
     3     3     4   ar
     4     4     5    1
     5     4     6   ar
     6     6     7   ar
     7     7     8   ar
     8     8     9    1
     9     8     1   ar
    10     7    10    1
    11    10    11    1
    12    10    12   am
    13    12    13    1
    14    13    14    1
    15    13    15    1
    16    13    16    1
    17    16    17    2
    18    17     6    1
    19    17    18    1
    20    18    19   ar
    21    19    20    1
    22    19    21   ar
    23    21    22    1
    24    21    23   ar
    25    23    24    1
    26    23    25   ar
    27    25    26    1
    28    25    27   ar
    29    27    28    1
    30    27    18   ar
    31    12    29    2
    32     3    30    1
    33    30    31    1
    34    30    32    2
