@<TRIPOS>MOLECULE
80
 34 36 0 0 0
SMALL
USER_CHARGES
****
From 3DB ct
@<TRIPOS>ATOM
      1 C          -2.0870    2.4950   -0.2130 C.ar    1  LIG1       -0.1281
      2 H          -2.9000    3.1980   -0.3890 H       1  LIG1        0.1320
      3 C          -2.3530    1.1330   -0.0290 C.ar    1  LIG1        0.1132
      4 C          -1.2670    0.2730    0.1740 C.ar    1  LIG1       -0.1893
      5 H          -1.4370   -0.7930    0.2980 H       1  LIG1        0.1613
      6 C           0.0570    0.7560    0.2000 C.ar    1  LIG1       -0.0812
      7 C           0.2980    2.1320    0.0910 C.ar    1  LIG1        0.2119
      8 C          -0.7780    2.9880   -0.1600 C.ar    1  LIG1       -0.2027
      9 H          -0.6220    4.0580   -0.2800 H       1  LIG1        0.1296
     10 N           1.5600    2.7320    0.2050 N.am    1  LIG1       -0.5537
     11 H           1.6910    3.6790   -0.1290 H       1  LIG1        0.3178
     12 C           2.6300    2.2780    0.9310 C.2     1  LIG1        0.4905
     13 C           2.4470    1.0220    1.7630 C.3     1  LIG1        0.0741
     14 H           3.3620    0.8700    2.3480 H       1  LIG1        0.0582
     15 H           1.6320    1.1550    2.4840 H       1  LIG1        0.0311
     16 N           2.2500   -0.1430    0.9100 N.2     1  LIG1       -0.4111
     17 C           1.1690   -0.2440    0.2140 C.2     1  LIG1        0.3287
     18 C           1.0400   -1.4570   -0.6560 C.ar    1  LIG1       -0.0717
     19 C           0.5270   -1.3650   -1.9560 C.ar    1  LIG1       -0.0721
     20 H           0.2280   -0.4070   -2.3720 H       1  LIG1        0.0969
     21 C           0.4150   -2.5120   -2.7430 C.ar    1  LIG1       -0.1145
     22 H           0.0190   -2.4410   -3.7530 H       1  LIG1        0.1042
     23 C           0.8220   -3.7480   -2.2400 C.ar    1  LIG1       -0.0927
     24 H           0.7390   -4.6400   -2.8570 H       1  LIG1        0.1013
     25 C           1.3500   -3.8400   -0.9520 C.ar    1  LIG1       -0.0739
     26 H           1.6790   -4.8010   -0.5650 H       1  LIG1        0.0970
     27 C           1.4660   -2.6960   -0.1610 C.ar    1  LIG1       -0.1164
     28 H           1.8870   -2.7700    0.8390 H       1  LIG1        0.1255
     29 O           3.6610    2.9530    0.9650 O.2     1  LIG1       -0.4193
     30 C          -3.7540    0.6800   -0.0740 C.2     1  LIG1       -0.1888
     31 H          -4.5010    1.4610   -0.2140 H       1  LIG1        0.1145
     32 C          -4.1910   -0.5810    0.0420 C.2     1  LIG1       -0.1812
     33 H          -5.2560   -0.7920   -0.0050 H       1  LIG1        0.1039
     34 H          -3.5380   -1.4330    0.1840 H       1  LIG1        0.1048
@<TRIPOS>BOND
     1     2     1    1
     2     1     3   ar
     3     3     4   ar
     4     4     5    1
     5     4     6   ar
     6     6     7   ar
     7     7     8   ar
     8     8     9    1
     9     8     1   ar
    10     7    10    1
    11    10    11    1
    12    10    12   am
    13    12    13    1
    14    13    14    1
    15    13    15    1
    16    13    16    1
    17    16    17    2
    18    17     6    1
    19    17    18    1
    20    18    19   ar
    21    19    20    1
    22    19    21   ar
    23    21    22    1
    24    21    23   ar
    25    23    24    1
    26    23    25   ar
    27    25    26    1
    28    25    27   ar
    29    27    28    1
    30    27    18   ar
    31    12    29    2
    32     3    30    1
    33    30    31    1
    34    30    32    2
    35    32    33    1
    36    32    34    1
