@<TRIPOS>MOLECULE
81
 33 35 0 0 0
SMALL
USER_CHARGES
****
From 3DB ct
@<TRIPOS>ATOM
      1 C          -2.1340    2.5050   -0.1470 C.ar    1  LIG1        0.1799
      2 H          -2.9680    3.1900   -0.2810 H       1  LIG1        0.0674
      3 C          -2.3550    1.1470    0.0310 C.ar    1  LIG1       -0.4519
      4 C          -1.2800    0.2810    0.1960 C.ar    1  LIG1        0.1509
      5 H          -1.4720   -0.7820    0.3270 H       1  LIG1        0.0635
      6 C           0.0380    0.7760    0.1810 C.ar    1  LIG1       -0.0962
      7 C           0.2840    2.1610    0.0540 C.ar    1  LIG1        0.1796
      8 C          -0.8270    3.0050   -0.1370 C.ar    1  LIG1       -0.2256
      9 H          -0.7100    4.0810   -0.2440 H       1  LIG1        0.1332
     10 N           1.5960    2.7400    0.1040 N.am    1  LIG1       -0.3457
     11 C           2.6470    2.2340    0.8870 C.2     1  LIG1        0.6610
     12 C           2.2870    1.0600    1.8190 C.3     1  LIG1       -0.4357
     13 H           1.3930    1.2740    2.4140 H       1  LIG1        0.1980
     14 N           2.1750   -0.1500    1.0050 N.2     1  LIG1       -0.3237
     15 C           1.1370   -0.2360    0.2370 C.2     1  LIG1        0.4302
     16 C           1.0420   -1.4420   -0.6400 C.ar    1  LIG1       -0.2413
     17 C           1.4900   -2.6780   -0.1560 C.ar    1  LIG1       -0.0255
     18 H           1.8920   -2.7650    0.8510 H       1  LIG1        0.1231
     19 C           1.4130   -3.8140   -0.9660 C.ar    1  LIG1       -0.1306
     20 H           1.7550   -4.7760   -0.5860 H       1  LIG1        0.1156
     21 C           0.9010   -3.7190   -2.2610 C.ar    1  LIG1       -0.0448
     22 H           0.8440   -4.6060   -2.8900 H       1  LIG1        0.1134
     23 C           0.4700   -2.4860   -2.7520 C.ar    1  LIG1       -0.2243
     24 H           0.0810   -2.4030   -3.7640 H       1  LIG1        0.1470
     25 C           0.5470   -1.3550   -1.9440 C.ar    1  LIG1        0.3398
     26 F           0.1550   -0.1780   -2.4550 F       1  LIG1       -0.2474
     27 CL          3.6060    0.7740    2.9930 Cl      1  LIG1        0.0566
     28 O           3.7790    2.7360    0.8490 O.2     1  LIG1       -0.4039
     29 C           1.8380    3.9770   -0.6370 C.3     1  LIG1       -0.1182
     30 H           2.9040    4.1170   -0.8370 H       1  LIG1        0.1102
     31 H           1.4920    4.8250   -0.0370 H       1  LIG1        0.0669
     32 H           1.3210    3.9510   -1.6020 H       1  LIG1        0.0865
     33 CL         -3.9620    0.5320    0.0350 Cl      1  LIG1        0.0922
@<TRIPOS>BOND
     1     2     1    1
     2     1     3   ar
     3     3     4   ar
     4     4     5    1
     5     4     6   ar
     6     6     7   ar
     7     7     8   ar
     8     8     9    1
     9     8     1   ar
    10     7    10    1
    11    10    11   am
    12    11    12    1
    13    12    13    1
    14    12    14    1
    15    14    15    2
    16    15     6    1
    17    15    16    1
    18    16    17   ar
    19    17    18    1
    20    17    19   ar
    21    19    20    1
    22    19    21   ar
    23    21    22    1
    24    21    23   ar
    25    23    24    1
    26    23    25   ar
    27    25    16   ar
    28    25    26    1
    29    12    27    1
    30    11    28    2
    31    10    29    1
    32    29    30    1
    33    29    31    1
    34    29    32    1
    35     3    33    1
