@<TRIPOS>MOLECULE
83
 30 32 0 0 0
SMALL
USER_CHARGES
****
From 3DB ct
@<TRIPOS>ATOM
      1 C          -2.0870    2.4870   -0.2990 C.ar    1  LIG1        0.1080
      2 H          -2.8850    3.1850   -0.5450 H       1  LIG1        0.0814
      3 C          -2.3800    1.1720    0.0620 C.ar    1  LIG1       -0.2120
      4 C          -1.3430    0.2740    0.3590 C.ar    1  LIG1       -0.2957
      5 C           0.0010    0.7070    0.2850 C.ar    1  LIG1        0.2921
      6 C           0.2790    2.0660    0.0320 C.ar    1  LIG1        0.2282
      7 C          -0.7670    2.9310   -0.3080 C.ar    1  LIG1       -0.2698
      8 H          -0.5710    3.9760   -0.5440 H       1  LIG1        0.1546
      9 N           1.5550    2.6560    0.1140 N.am    1  LIG1       -0.6290
     10 H           1.6940    3.5550   -0.3400 H       1  LIG1        0.3396
     11 C           2.6160    2.2330    0.8770 C.2     1  LIG1        0.5595
     12 C           2.3750    1.0520    1.8090 C.3     1  LIG1        0.0328
     13 H           3.2570    0.9350    2.4480 H       1  LIG1        0.0726
     14 H           1.5240    1.2400    2.4730 H       1  LIG1        0.0195
     15 N           2.2150   -0.1590    1.0070 N.2     1  LIG1       -0.3596
     16 C           1.1310   -0.2830    0.3100 C.2     1  LIG1        0.1348
     17 C           1.0530   -1.4630   -0.6040 C.ar    1  LIG1       -0.0941
     18 C           1.5210   -2.7150   -0.1810 C.ar    1  LIG1       -0.0729
     19 H           1.9430   -2.8540    0.8120 H       1  LIG1        0.1333
     20 C           1.4320   -3.8160   -1.0360 C.ar    1  LIG1       -0.1092
     21 H           1.7950   -4.7890   -0.7080 H       1  LIG1        0.1103
     22 C           0.8720   -3.6760   -2.3070 C.ar    1  LIG1       -0.0515
     23 H           0.8040   -4.5370   -2.9700 H       1  LIG1        0.1161
     24 C           0.3970   -2.4330   -2.7270 C.ar    1  LIG1       -0.2650
     25 H          -0.0380   -2.3160   -3.7160 H       1  LIG1        0.1620
     26 C           0.4850   -1.3350   -1.8750 C.ar    1  LIG1        0.3223
     27 F           0.0430   -0.1480   -2.3190 F       1  LIG1       -0.2418
     28 O           3.6960    2.8320    0.8380 O.2     1  LIG1       -0.4279
     29 CL         -1.7370   -1.3390    0.8860 Cl      1  LIG1        0.0946
     30 CL         -4.0510    0.7200    0.1080 Cl      1  LIG1        0.0668
@<TRIPOS>BOND
     1     2     1    1
     2     1     3   ar
     3     3     4   ar
     4     4     5   ar
     5     5     6   ar
     6     6     7   ar
     7     7     8    1
     8     7     1   ar
     9     6     9    1
    10     9    10    1
    11     9    11   am
    12    11    12    1
    13    12    13    1
    14    12    14    1
    15    12    15    1
    16    15    16    2
    17    16     5    1
    18    16    17    1
    19    17    18   ar
    20    18    19    1
    21    18    20   ar
    22    20    21    1
    23    20    22   ar
    24    22    23    1
    25    22    24   ar
    26    24    25    1
    27    24    26   ar
    28    26    17   ar
    29    26    27    1
    30    11    28    2
    31     4    29    1
    32     3    30    1
