@<TRIPOS>MOLECULE
85
 33 35 0 0 0
SMALL
USER_CHARGES
****
From 3DB ct
@<TRIPOS>ATOM
      1 C          -2.1100    2.4950   -0.2400 C.ar    1  LIG1        0.2029
      2 C          -2.3340    1.1290   -0.0640 C.ar    1  LIG1       -0.2094
      3 H          -3.3450    0.7250   -0.1070 H       1  LIG1        0.1334
      4 C          -1.2600    0.2610    0.1430 C.ar    1  LIG1       -0.0932
      5 H          -1.4700   -0.8020    0.2430 H       1  LIG1        0.1307
      6 C           0.0570    0.7490    0.2040 C.ar    1  LIG1       -0.1840
      7 C           0.2830    2.1320    0.1120 C.ar    1  LIG1        0.3014
      8 C          -0.8010    2.9870   -0.1450 C.ar    1  LIG1       -0.3239
      9 H          -0.6330    4.0600   -0.2410 H       1  LIG1        0.1554
     10 N           1.5380    2.7520    0.2430 N.am    1  LIG1       -0.5927
     11 H           1.6450    3.6920   -0.1290 H       1  LIG1        0.3265
     12 C           2.6300    2.2760    0.9210 C.2     1  LIG1        0.5070
     13 C           2.4280    1.0340    1.7740 C.3     1  LIG1        0.0943
     14 H           3.3230    0.8960    2.3900 H       1  LIG1        0.0525
     15 H           1.5880    1.1670    2.4660 H       1  LIG1        0.0210
     16 N           2.2670   -0.1410    0.9190 N.2     1  LIG1       -0.4403
     17 C           1.1750   -0.2490    0.2340 C.2     1  LIG1        0.4782
     18 C           1.0440   -1.4580   -0.6280 C.ar    1  LIG1       -0.3186
     19 C           1.4650   -2.7080   -0.1560 C.ar    1  LIG1       -0.0120
     20 H           1.8890   -2.8160    0.8400 H       1  LIG1        0.1205
     21 C           1.3270   -3.8370   -0.9670 C.ar    1  LIG1       -0.1463
     22 H           1.6530   -4.8100   -0.6030 H       1  LIG1        0.1147
     23 C           0.7700   -3.7220   -2.2420 C.ar    1  LIG1       -0.0286
     24 H           0.6650   -4.6050   -2.8710 H       1  LIG1        0.1104
     25 C           0.3460   -2.4780   -2.7100 C.ar    1  LIG1       -0.2830
     26 H          -0.0860   -2.3820   -3.7020 H       1  LIG1        0.1553
     27 C           0.4810   -1.3520   -1.9020 C.ar    1  LIG1        0.4437
     28 F           0.0880   -0.1640   -2.3860 F       1  LIG1       -0.2676
     29 O           3.7050    2.8830    0.8860 O.2     1  LIG1       -0.4263
     30 C          -3.2610    3.4340   -0.4550 C.3     1  LIG1       -0.2290
     31 H          -2.9590    4.2840   -1.0760 H       1  LIG1        0.0699
     32 H          -3.6230    3.8090    0.5080 H       1  LIG1        0.0703
     33 H          -4.0850    2.9310   -0.9720 H       1  LIG1        0.0665
@<TRIPOS>BOND
     1     1     2   ar
     2     2     3    1
     3     2     4   ar
     4     4     5    1
     5     4     6   ar
     6     6     7   ar
     7     7     8   ar
     8     8     9    1
     9     8     1   ar
    10     7    10    1
    11    10    11    1
    12    10    12   am
    13    12    13    1
    14    13    14    1
    15    13    15    1
    16    13    16    1
    17    16    17    2
    18    17     6    1
    19    17    18    1
    20    18    19   ar
    21    19    20    1
    22    19    21   ar
    23    21    22    1
    24    21    23   ar
    25    23    24    1
    26    23    25   ar
    27    25    26    1
    28    25    27   ar
    29    27    18   ar
    30    27    28    1
    31    12    29    2
    32     1    30    1
    33    30    31    1
    34    30    32    1
    35    30    33    1
