@<TRIPOS>MOLECULE
87
 37 40 0 0 0
SMALL
USER_CHARGES
****
From 3DB ct
@<TRIPOS>ATOM
      1 C           0.2560    2.1600    0.0610 C.ar    1  LIG1        0.1325
      2 C           0.0440    0.7750    0.2060 C.ar    1  LIG1       -0.0392
      3 C           1.1660   -0.2220    0.2260 C.2     1  LIG1        0.2780
      4 N           2.2500   -0.1170    0.9220 N.2     1  LIG1       -0.3810
      5 C           2.4360    1.0410    1.7840 C.3     1  LIG1        0.1189
      6 H           3.3290    0.8540    2.3840 H       1  LIG1        0.0622
      7 H           1.6120    1.1470    2.5000 H       1  LIG1        0.0437
      8 C           2.5910    2.2550    0.9500 C.ar    1  LIG1       -0.1983
      9 N           1.5500    2.7280    0.1730 N.ar    1  LIG1       -0.0399
     10 C           2.0030    3.8860   -0.4160 C.ar    1  LIG1        0.0578
     11 H           1.3870    4.4770   -1.0830 H       1  LIG1        0.1877
     12 N           3.2570    4.1450   -0.1170 N.ar    1  LIG1       -0.3551
     13 C           3.6390    3.1500    0.7700 C.ar    1  LIG1        0.1015
     14 C           4.9770    3.1410    1.3710 C.2     1  LIG1        0.5751
     15 O           5.8250    4.0010    1.1280 O.2     1  LIG1       -0.4320
     16 N           5.2250    2.1550    2.2800 N.am    1  LIG1       -0.7317
     17 H           6.1240    2.1110    2.7430 H       1  LIG1        0.3166
     18 H           4.5190    1.5060    2.5990 H       1  LIG1        0.3147
     19 C           1.0450   -1.4340   -0.6400 C.ar    1  LIG1       -0.1512
     20 C           1.4810   -2.6710   -0.1500 C.ar    1  LIG1       -0.0604
     21 H           1.8930   -2.7540    0.8540 H       1  LIG1        0.1313
     22 C           1.3790   -3.8120   -0.9500 C.ar    1  LIG1       -0.1386
     23 H           1.7120   -4.7760   -0.5670 H       1  LIG1        0.1171
     24 C           0.8540   -3.7200   -2.2400 C.ar    1  LIG1       -0.0294
     25 H           0.7770   -4.6110   -2.8610 H       1  LIG1        0.1125
     26 C           0.4340   -2.4860   -2.7360 C.ar    1  LIG1       -0.2637
     27 H           0.0350   -2.4050   -3.7440 H       1  LIG1        0.1587
     28 C           0.5360   -1.3490   -1.9380 C.ar    1  LIG1        0.3526
     29 F           0.1540   -0.1700   -2.4530 F       1  LIG1       -0.2497
     30 C          -1.2700    0.2750    0.2050 C.ar    1  LIG1        0.1191
     31 H          -1.4580   -0.7880    0.3410 H       1  LIG1        0.0715
     32 C          -2.3490    1.1340    0.0070 C.ar    1  LIG1       -0.4269
     33 C          -2.1380    2.4940   -0.1950 C.ar    1  LIG1        0.2130
     34 H          -2.9780    3.1670   -0.3560 H       1  LIG1        0.0585
     35 C          -0.8400    3.0100   -0.1700 C.ar    1  LIG1       -0.2654
     36 H          -0.7200    4.0860   -0.2860 H       1  LIG1        0.1465
     37 CL         -3.9510    0.5060   -0.0090 Cl      1  LIG1        0.0927
@<TRIPOS>BOND
     1     1     2   ar
     2     2     3    1
     3     3     4    2
     4     4     5    1
     5     5     6    1
     6     5     7    1
     7     5     8    1
     8     8     9   ar
     9     9     1    1
    10     9    10   ar
    11    10    11    1
    12    10    12   ar
    13    12    13   ar
    14    13     8   ar
    15    13    14    1
    16    14    15    2
    17    14    16   am
    18    16    17    1
    19    16    18    1
    20     3    19    1
    21    19    20   ar
    22    20    21    1
    23    20    22   ar
    24    22    23    1
    25    22    24   ar
    26    24    25    1
    27    24    26   ar
    28    26    27    1
    29    26    28   ar
    30    28    19   ar
    31    28    29    1
    32     2    30   ar
    33    30    31    1
    34    30    32   ar
    35    32    33   ar
    36    33    34    1
    37    33    35   ar
    38    35    36    1
    39    35     1   ar
    40    32    37    1
