@<TRIPOS>MOLECULE
89
 36 39 0 0 0
SMALL
USER_CHARGES
****
From 3DB ct
@<TRIPOS>ATOM
      1 C           0.2480    2.1810    0.1130 C.ar    1  LIG1        0.2032
      2 C           0.0520    0.7860    0.1920 C.ar    1  LIG1        0.0197
      3 C           1.1810   -0.2060    0.1910 C.2     1  LIG1        0.0935
      4 N           2.2720   -0.1170    0.8800 N.2     1  LIG1       -0.3789
      5 C           2.4530    1.0260    1.7600 C.3     1  LIG1        0.1904
      6 H           3.3260    0.8390    2.3880 H       1  LIG1        0.0709
      7 H           1.6160    1.1240    2.4640 H       1  LIG1        0.0234
      8 C           2.6100    2.2470    0.9400 C.ar    1  LIG1       -0.1742
      9 N           1.5390    2.7590    0.2310 N.ar    1  LIG1       -0.1437
     10 C           1.9620    3.9620   -0.2860 C.ar    1  LIG1        0.1281
     11 H           1.3170    4.6020   -0.8760 H       1  LIG1        0.1816
     12 N           3.2280    4.2020   -0.0290 N.ar    1  LIG1       -0.4073
     13 CA          3.6670    3.1270    0.7340 C.ar    1  LIG1        0.1481
     14 C           5.0490    3.0580    1.2200 C.2     1  LIG1        0.5501
     15 O           5.9050    3.9100    1.0040 O.2     1  LIG1       -0.4246
     16 OXT         5.3550    1.9580    1.9470 O.3     1  LIG1       -0.4664
     17 HXT         6.3040    2.0740    2.1820 H       1  LIG1        0.3242
     18 C           1.0470   -1.4140   -0.6770 C.ar    1  LIG1        0.3738
     19 C           1.4850   -2.6370   -0.1480 C.ar    1  LIG1       -0.3142
     20 H           1.9070   -2.6840    0.8540 H       1  LIG1        0.1702
     21 C           1.3710   -3.8060   -0.9010 C.ar    1  LIG1        0.0266
     22 H           1.7040   -4.7560   -0.4860 H       1  LIG1        0.0946
     23 C           0.8300   -3.7570   -2.1850 C.ar    1  LIG1       -0.1936
     24 H           0.7420   -4.6690   -2.7730 H       1  LIG1        0.1270
     25 C           0.4110   -2.5380   -2.7230 C.ar    1  LIG1        0.1254
     26 H           0.0050   -2.5150   -3.7320 H       1  LIG1        0.0668
     27 C           0.5220   -1.3610   -1.9750 C.ar    1  LIG1       -0.4488
     28 CL          0.0380    0.1150   -2.7310 Cl      1  LIG1        0.0783
     29 C          -1.2570    0.2720    0.1430 C.ar    1  LIG1        0.0834
     30 H          -1.4380   -0.7970    0.2220 H       1  LIG1        0.0926
     31 C          -2.3440    1.1280   -0.0210 C.ar    1  LIG1       -0.4718
     32 C          -2.1500    2.4980   -0.1440 C.ar    1  LIG1        0.2131
     33 H          -2.9970    3.1680   -0.2770 H       1  LIG1        0.0664
     34 C          -0.8590    3.0270   -0.0800 C.ar    1  LIG1       -0.2776
     35 H          -0.7540    4.1090   -0.1420 H       1  LIG1        0.1417
     36 CL         -3.9380    0.4810   -0.0890 Cl      1  LIG1        0.1079
@<TRIPOS>BOND
     1     1     2   ar
     2     2     3    1
     3     3     4    2
     4     4     5    1
     5     5     6    1
     6     5     7    1
     7     5     8    1
     8     8     9   ar
     9     9     1    1
    10     9    10   ar
    11    10    11    1
    12    10    12   ar
    13    12    13   ar
    14    13     8   ar
    15    13    14    1
    16    14    15    2
    17    14    16    1
    18    16    17    1
    19     3    18    1
    20    18    19   ar
    21    19    20    1
    22    19    21   ar
    23    21    22    1
    24    21    23   ar
    25    23    24    1
    26    23    25   ar
    27    25    26    1
    28    25    27   ar
    29    27    18   ar
    30    27    28    1
    31     2    29   ar
    32    29    30    1
    33    29    31   ar
    34    31    32   ar
    35    32    33    1
    36    32    34   ar
    37    34    35    1
    38    34     1   ar
    39    31    36    1
