@<TRIPOS>MOLECULE
91
 37 40 0 0 0
SMALL
USER_CHARGES
****
From 3DB ct
@<TRIPOS>ATOM
      1 C           0.2790    2.1660    0.0510 C.ar    1  LIG1       -0.1178
      2 C           0.0410    0.7740    0.1390 C.ar    1  LIG1        0.1107
      3 C           1.1570   -0.2310    0.2220 C.2     1  LIG1        0.2192
      4 N           2.2150   -0.1250    0.9590 N.2     1  LIG1       -0.3794
      5 C           2.3920    1.0650    1.7890 C.3     1  LIG1        0.1318
      6 H           3.2610    0.8930    2.4360 H       1  LIG1        0.0532
      7 H           1.5470    1.2090    2.4750 H       1  LIG1        0.0195
      8 C           2.6150    2.2770    0.9480 C.ar    1  LIG1       -0.4107
      9 C           1.6260    2.7690    0.1160 C.ar    1  LIG1        0.4672
     10 N           1.8190    3.8650   -0.6590 N.ar    1  LIG1       -0.5874
     11 C           3.0260    4.4600   -0.6100 C.ar    1  LIG1        0.6608
     12 N           4.0400    4.0530    0.1720 N.ar    1  LIG1       -0.5852
     13 C           3.8120    2.9620    0.9320 C.ar    1  LIG1        0.3390
     14 H           4.6500    2.6450    1.5490 H       1  LIG1        0.0950
     15 C           3.2320    5.6850   -1.4440 C.3     1  LIG1       -0.2839
     16 H           2.6420    5.6280   -2.3640 H       1  LIG1        0.0869
     17 H           4.2860    5.7900   -1.7200 H       1  LIG1        0.0893
     18 H           2.9250    6.5710   -0.8810 H       1  LIG1        0.0869
     19 C           1.0490   -1.4480   -0.6340 C.ar    1  LIG1       -0.1303
     20 C           1.4290   -2.6990   -0.1280 C.ar    1  LIG1       -0.0648
     21 H           1.8010   -2.8030    0.8890 H       1  LIG1        0.1311
     22 C           1.3170   -3.8350   -0.9330 C.ar    1  LIG1       -0.1367
     23 H           1.6110   -4.8080   -0.5420 H       1  LIG1        0.1157
     24 C           0.8240   -3.7280   -2.2350 C.ar    1  LIG1       -0.0468
     25 H           0.7390   -4.6170   -2.8590 H       1  LIG1        0.1142
     26 C           0.4410   -2.4840   -2.7360 C.ar    1  LIG1       -0.2516
     27 H           0.0600   -2.3940   -3.7500 H       1  LIG1        0.1538
     28 C           0.5520   -1.3510   -1.9350 C.ar    1  LIG1        0.3464
     29 F           0.2010   -0.1640   -2.4540 F       1  LIG1       -0.2496
     30 C          -1.2750    0.2720    0.1300 C.ar    1  LIG1        0.0374
     31 H          -1.4630   -0.7950    0.2260 H       1  LIG1        0.0709
     32 C          -2.3570    1.1380    0.0050 C.ar    1  LIG1       -0.3577
     33 C          -2.1490    2.5050   -0.1080 C.ar    1  LIG1        0.1137
     34 H          -2.9880    3.1900   -0.2080 H       1  LIG1        0.0651
     35 C          -0.8460    3.0100   -0.0830 C.ar    1  LIG1       -0.1207
     36 H          -0.7120    4.0900   -0.1560 H       1  LIG1        0.1362
     37 CL         -3.9600    0.5100   -0.0120 Cl      1  LIG1        0.0786
@<TRIPOS>BOND
     1     1     2   ar
     2     2     3    1
     3     3     4    2
     4     4     5    1
     5     5     6    1
     6     5     7    1
     7     5     8    1
     8     8     9   ar
     9     9     1    1
    10     9    10   ar
    11    10    11   ar
    12    11    12   ar
    13    12    13   ar
    14    13    14    1
    15    13     8   ar
    16    11    15    1
    17    15    16    1
    18    15    17    1
    19    15    18    1
    20     3    19    1
    21    19    20   ar
    22    20    21    1
    23    20    22   ar
    24    22    23    1
    25    22    24   ar
    26    24    25    1
    27    24    26   ar
    28    26    27    1
    29    26    28   ar
    30    28    19   ar
    31    28    29    1
    32     2    30   ar
    33    30    31    1
    34    30    32   ar
    35    32    33   ar
    36    33    34    1
    37    33    35   ar
    38    35    36    1
    39    35     1   ar
    40    32    37    1
