@<TRIPOS>MOLECULE
93
 32 35 0 0 0
SMALL
USER_CHARGES
****
From 3DB ct
@<TRIPOS>ATOM
      1 C           0.0080    2.1360   -0.0320 C.ar    1  LIG1       -0.1263
      2 C          -0.1190    0.7380    0.1130 C.ar    1  LIG1        0.1110
      3 C           1.0610   -0.2030    0.1630 C.2     1  LIG1        0.2465
      4 N           2.1510   -0.0500    0.8470 N.2     1  LIG1       -0.4399
      5 C           2.3790    1.1350    1.6780 C.3     1  LIG1        0.2241
      6 H           3.3450    1.0180    2.1820 H       1  LIG1        0.0433
      7 H           1.6200    1.2060    2.4660 H       1  LIG1       -0.0117
      8 C           2.3900    2.3580    0.8360 C.ar    1  LIG1        0.0160
      9 C           1.3020    2.7920    0.0490 C.ar    1  LIG1        0.0984
     10 N           1.6370    3.9380   -0.5650 N.ar    1  LIG1       -0.2248
     11 N           2.9110    4.1220   -0.1420 N.ar    1  LIG1       -0.0821
     12 H           3.4620    4.9240   -0.4520 H       1  LIG1        0.3253
     13 N           3.4230    3.2040    0.7130 N.ar    1  LIG1       -0.2236
     14 C           0.9840   -1.4470   -0.6760 C.ar    1  LIG1        0.0210
     15 C           0.4930   -1.4030   -1.9870 C.ar    1  LIG1       -0.1467
     16 H           0.1560   -0.4690   -2.4300 H       1  LIG1        0.1133
     17 C           0.4450   -2.5700   -2.7520 C.ar    1  LIG1       -0.0786
     18 H           0.0610   -2.5370   -3.7700 H       1  LIG1        0.0980
     19 C           0.8920   -3.7780   -2.2160 C.ar    1  LIG1       -0.1143
     20 H           0.8540   -4.6860   -2.8150 H       1  LIG1        0.1023
     21 C           1.3950   -3.8220   -0.9160 C.ar    1  LIG1       -0.0623
     22 H           1.7500   -4.7640   -0.5010 H       1  LIG1        0.0951
     23 C           1.4470   -2.6580   -0.1470 C.ar    1  LIG1       -0.1528
     24 H           1.8430   -2.7030    0.8660 H       1  LIG1        0.1324
     25 C          -1.4060    0.1700    0.1590 C.ar    1  LIG1       -0.2202
     26 H          -1.5380   -0.9020    0.2980 H       1  LIG1        0.1365
     27 C          -2.5450    0.9650    0.0220 C.ar    1  LIG1       -0.0293
     28 H          -3.5330    0.5100    0.0520 H       1  LIG1        0.0970
     29 C          -2.4160    2.3380   -0.1610 C.ar    1  LIG1       -0.1594
     30 H          -3.3030    2.9590   -0.2720 H       1  LIG1        0.1170
     31 C          -1.1490    2.9210   -0.1840 C.ar    1  LIG1       -0.0107
     32 H          -1.0710    4.0020   -0.2980 H       1  LIG1        0.1053
@<TRIPOS>BOND
     1     1     2   ar
     2     2     3    1
     3     3     4    2
     4     4     5    1
     5     5     6    1
     6     5     7    1
     7     5     8    1
     8     8     9   ar
     9     9     1    1
    10     9    10   ar
    11    10    11   ar
    12    11    12    1
    13    11    13   ar
    14    13     8   ar
    15     3    14    1
    16    14    15   ar
    17    15    16    1
    18    15    17   ar
    19    17    18    1
    20    17    19   ar
    21    19    20    1
    22    19    21   ar
    23    21    22    1
    24    21    23   ar
    25    23    24    1
    26    23    14   ar
    27     2    25   ar
    28    25    26    1
    29    25    27   ar
    30    27    28    1
    31    27    29   ar
    32    29    30    1
    33    29    31   ar
    34    31    32    1
    35    31     1   ar
