@<TRIPOS>MOLECULE
95
 33 35 0 0 0
SMALL
USER_CHARGES
****
From 3DB ct
@<TRIPOS>ATOM
      1 C          -2.1270    2.5090   -0.2330 C.ar    1  LIG1        0.0242
      2 H          -2.9320    3.2120   -0.4380 H       1  LIG1        0.0869
      3 C          -2.4090    1.1950    0.1300 C.ar    1  LIG1       -0.1583
      4 C          -1.3620    0.3000    0.3850 C.ar    1  LIG1       -0.4176
      5 C          -0.0210    0.7350    0.2550 C.ar    1  LIG1        0.6467
      6 C           0.2720    2.0930   -0.0160 C.ar    1  LIG1       -0.2092
      7 C          -0.8040    2.9530   -0.2950 C.ar    1  LIG1       -0.0720
      8 H          -0.6480    4.0060   -0.5220 H       1  LIG1        0.1214
      9 N           1.6000    2.6390    0.0150 N.am    1  LIG1       -0.1905
     10 C           2.6030    2.1970    0.8860 C.2     1  LIG1        0.4851
     11 C           2.2330    1.0790    1.8580 C.3     1  LIG1       -0.0062
     12 H           3.0490    0.9690    2.5810 H       1  LIG1        0.0840
     13 H           1.3330    1.3190    2.4340 H       1  LIG1        0.0273
     14 N           2.1250   -0.1600    1.0850 N.2     1  LIG1       -0.3022
     15 C           1.0940   -0.2640    0.3070 C.2     1  LIG1       -0.1448
     16 C           1.0580   -1.4370   -0.6290 C.ar    1  LIG1        0.2128
     17 C           0.5950   -1.3000   -1.9440 C.ar    1  LIG1       -0.2381
     18 H           0.2540   -0.3420   -2.3290 H       1  LIG1        0.1316
     19 C           0.5830   -2.4050   -2.7990 C.ar    1  LIG1       -0.0838
     20 H           0.2220   -2.2980   -3.8200 H       1  LIG1        0.1110
     21 C           1.0400   -3.6440   -2.3490 C.ar    1  LIG1       -0.1233
     22 H           1.0290   -4.5030   -3.0180 H       1  LIG1        0.1111
     23 C           1.5160   -3.7810   -1.0460 C.ar    1  LIG1       -0.0565
     24 H           1.8770   -4.7470   -0.6970 H       1  LIG1        0.1000
     25 C           1.5310   -2.6800   -0.1880 C.ar    1  LIG1       -0.1682
     26 H           1.9050   -2.8000    0.8270 H       1  LIG1        0.1349
     27 O           3.7360    2.6950    0.9100 O.2     1  LIG1       -0.4074
     28 C           1.8980    3.8040   -0.8170 C.3     1  LIG1       -0.1427
     29 H           2.9730    3.8910   -0.9980 H       1  LIG1        0.1113
     30 H           1.5660    4.7080   -0.2970 H       1  LIG1        0.0680
     31 H           1.4030    3.7140   -1.7900 H       1  LIG1        0.0864
     32 CL         -1.7330   -1.3130    0.9300 Cl      1  LIG1        0.1102
     33 CL         -4.0770    0.7450    0.2420 Cl      1  LIG1        0.0679
@<TRIPOS>BOND
     1     2     1    1
     2     1     3   ar
     3     3     4   ar
     4     4     5   ar
     5     5     6   ar
     6     6     7   ar
     7     7     8    1
     8     7     1   ar
     9     6     9    1
    10     9    10   am
    11    10    11    1
    12    11    12    1
    13    11    13    1
    14    11    14    1
    15    14    15    2
    16    15     5    1
    17    15    16    1
    18    16    17   ar
    19    17    18    1
    20    17    19   ar
    21    19    20    1
    22    19    21   ar
    23    21    22    1
    24    21    23   ar
    25    23    24    1
    26    23    25   ar
    27    25    26    1
    28    25    16   ar
    29    10    27    2
    30     9    28    1
    31    28    29    1
    32    28    30    1
    33    28    31    1
    34     4    32    1
    35     3    33    1
