@<TRIPOS>MOLECULE
98
 35 38 0 0 0
SMALL
USER_CHARGES
****
From 3DB ct
@<TRIPOS>ATOM
      1 C           0.2570    2.1800    0.0670 C.ar    1  LIG1        0.0678
      2 C           0.0530    0.7870    0.1530 C.ar    1  LIG1        0.1374
      3 C           1.1720   -0.2160    0.1900 C.2     1  LIG1        0.1200
      4 N           2.2380   -0.1390    0.9210 N.2     1  LIG1       -0.3752
      5 C           2.4100    1.0240    1.7880 C.3     1  LIG1        0.1490
      6 H           3.3130    0.8700    2.3890 H       1  LIG1        0.0514
      7 H           1.5820    1.1190    2.5020 H       1  LIG1        0.0257
      8 C           2.5730    2.2470    0.9690 C.ar    1  LIG1        0.1855
      9 N           1.5540    2.7430    0.1810 N.ar    1  LIG1       -0.3154
     10 C           2.0900    3.8940   -0.3820 C.ar    1  LIG1        0.4113
     11 N           3.3160    4.0770    0.0770 N.ar    1  LIG1       -0.2627
     12 N           3.6190    3.0460    0.9180 N.ar    1  LIG1       -0.2233
     13 C           1.4510    4.7330   -1.4260 C.3     1  LIG1       -0.4188
     14 H           2.2200    5.2460   -2.0130 H       1  LIG1        0.1285
     15 H           0.8190    5.5020   -0.9720 H       1  LIG1        0.1155
     16 H           0.8570    4.1360   -2.1230 H       1  LIG1        0.1602
     17 C           1.0520   -1.4230   -0.6800 C.ar    1  LIG1        0.2854
     18 C           1.4950   -2.6450   -0.1520 C.ar    1  LIG1       -0.2998
     19 H           1.9090   -2.6930    0.8530 H       1  LIG1        0.1697
     20 C           1.3950   -3.8110   -0.9110 C.ar    1  LIG1        0.0304
     21 H           1.7310   -4.7600   -0.4970 H       1  LIG1        0.0915
     22 C           0.8640   -3.7600   -2.1990 C.ar    1  LIG1       -0.1941
     23 H           0.7870   -4.6710   -2.7920 H       1  LIG1        0.1247
     24 C           0.4400   -2.5420   -2.7350 C.ar    1  LIG1        0.1136
     25 H           0.0430   -2.5180   -3.7480 H       1  LIG1        0.0673
     26 C           0.5370   -1.3680   -1.9820 C.ar    1  LIG1       -0.3849
     27 CL          0.0520    0.1100   -2.7360 Cl      1  LIG1        0.0544
     28 C          -1.2590    0.2810    0.1090 C.ar    1  LIG1       -0.2089
     29 H          -1.4530   -0.7870    0.1850 H       1  LIG1        0.1526
     30 C          -2.3490    1.1370   -0.0380 C.ar    1  LIG1       -0.0989
     31 H          -3.3600    0.7330   -0.0720 H       1  LIG1        0.1200
     32 C          -2.1450    2.5080   -0.1390 C.ar    1  LIG1       -0.0879
     33 H          -2.9970    3.1790   -0.2430 H       1  LIG1        0.1217
     34 C          -0.8510    3.0300   -0.0830 C.ar    1  LIG1       -0.1371
     35 H          -0.7500    4.1120   -0.1040 H       1  LIG1        0.1233
@<TRIPOS>BOND
     1     1     2   ar
     2     2     3    1
     3     3     4    2
     4     4     5    1
     5     5     6    1
     6     5     7    1
     7     5     8    1
     8     8     9   ar
     9     9     1    1
    10     9    10   ar
    11    10    11   ar
    12    11    12   ar
    13    12     8   ar
    14    10    13    1
    15    13    14    1
    16    13    15    1
    17    13    16    1
    18     3    17    1
    19    17    18   ar
    20    18    19    1
    21    18    20   ar
    22    20    21    1
    23    20    22   ar
    24    22    23    1
    25    22    24   ar
    26    24    25    1
    27    24    26   ar
    28    26    17   ar
    29    26    27    1
    30     2    28   ar
    31    28    29    1
    32    28    30   ar
    33    30    31    1
    34    30    32   ar
    35    32    33    1
    36    32    34   ar
    37    34    35    1
    38    34     1   ar
