@<TRIPOS>MOLECULE
M5
 60 62 0 0 0
SMALL
GASTEIGER
Energy = 0

@<TRIPOS>ATOM
      1 C           2.0570  -13.2365    0.4981 C.2     1  LIG11      -0.0759
      2 C           0.9216  -12.9425    1.1500 C.2     1  LIG11      -0.0846
      3 C           0.3940  -13.7455    2.3133 C.3     1  LIG11      -0.0275
      4 C           1.4946  -14.6688    2.8998 C.3     1  LIG11       0.0091
      5 C           1.0349  -15.6275    4.0384 C.3     1  LIG11       0.1087
      6 H           3.8949  -18.1008    5.1889 H       1  LIG11       0.0657
      7 C           2.5564  -12.3869   -0.6493 C.3     1  LIG11      -0.0438
      8 C           3.0715  -16.8911    3.6459 C.ar    1  LIG11       0.1285
      9 C           0.4079  -14.8459    5.2273 C.3     1  LIG11      -0.0249
     10 C           0.0493  -16.7448    3.5874 C.3     1  LIG11      -0.0249
     11 C           5.9088  -19.4848    3.9186 C.3     1  LIG11      -0.0096
     12 C           7.1665  -18.7031    4.4459 C.3     1  LIG11      -0.0438
     13 C           8.3683  -19.5312    5.0012 C.3     1  LIG11      -0.0514
     14 C           9.6760  -18.7318    5.2331 C.3     1  LIG11      -0.0402
     15 C          10.8910  -19.6821    5.3967 C.3     1  LIG11       0.0348
     16 C           3.9484  -17.8630    4.1325 C.ar    1  LIG11      -0.0157
     17 C           4.8711  -18.5095    3.3005 C.ar    1  LIG11      -0.0348
     18 C           4.7927  -18.2378    1.9278 C.ar    1  LIG11      -0.0160
     19 C           3.8345  -17.3555    1.4123 C.ar    1  LIG11       0.1241
     20 C           3.0453  -16.5892    2.2786 C.ar    1  LIG11       0.0394
     21 C           2.1547  -15.4542    1.7395 C.3     1  LIG11       0.0014
     22 C           2.9174  -14.4285    0.8567 C.3     1  LIG11      -0.0245
     23 H           3.6449  -18.0669   -0.4399 H       1  LIG11       0.2921
     24 H           5.4701  -18.7094    1.2302 H       1  LIG11       0.0657
     25 H           1.3729  -15.9248    1.1211 H       1  LIG11       0.0358
     26 H           3.2437  -14.8992   -0.0801 H       1  LIG11       0.0316
     27 H           0.3270  -12.0820    0.8401 H       1  LIG11       0.0572
     28 H           3.8129  -14.0719    1.3890 H       1  LIG11       0.0316
     29 H          -0.4677  -14.3259    1.9504 H       1  LIG11       0.0312
     30 H           0.0419  -13.0390    3.0815 H       1  LIG11       0.0312
     31 H           2.2641  -14.0158    3.3474 H       1  LIG11       0.0348
     32 H           2.2282  -11.3388   -0.5822 H       1  LIG11       0.0274
     33 H           2.1883  -12.8023   -1.6000 H       1  LIG11       0.0274
     34 C          12.1323  -18.9164    5.4556 C.1     1  LIG11       0.0625
     35 H           0.1446  -15.5195    6.0573 H       1  LIG11       0.0268
     36 H          -0.4985  -14.3104    4.9060 H       1  LIG11       0.0268
     37 H           1.1253  -14.1023    5.6080 H       1  LIG11       0.0268
     38 H          -0.9249  -16.3218    3.3009 H       1  LIG11       0.0268
     39 H          -0.1131  -17.4432    4.4236 H       1  LIG11       0.0268
     40 H           0.4382  -17.3315    2.7437 H       1  LIG11       0.0268
     41 C           5.2108  -20.1933    5.1211 C.3     1  LIG11      -0.0558
     42 C           6.3504  -20.6387    2.9546 C.3     1  LIG11      -0.0558
     43 H           6.8514  -17.9857    5.2207 H       1  LIG11       0.0274
     44 H           7.5861  -18.0943    3.6284 H       1  LIG11       0.0274
     45 H           8.5796  -20.3255    4.2646 H       1  LIG11       0.0266
     46 H           8.0992  -20.0361    5.9406 H       1  LIG11       0.0266
     47 H           9.5892  -18.1335    6.1541 H       1  LIG11       0.0275
     48 H           9.8550  -18.0611    4.3769 H       1  LIG11       0.0275
     49 N          13.1181  -18.3060    5.5034 N.1     1  LIG11      -0.1966
     50 H           3.6572  -12.3999   -0.6616 H       1  LIG11       0.0274
     51 H          10.9614  -20.3747    4.5442 H       1  LIG11       0.0418
     52 O           2.2325  -16.2354    4.5504 O.3     1  LIG11      -0.4855
     53 O           3.6496  -17.2398    0.0307 O.3     1  LIG11      -0.5064
     54 H           4.3245  -20.7490    4.7786 H       1  LIG11       0.0238
     55 H           4.8750  -19.4769    5.8849 H       1  LIG11       0.0238
     56 H           5.8981  -20.9043    5.6059 H       1  LIG11       0.0238
     57 H           7.0565  -21.3386    3.4139 H       1  LIG11       0.0238
     58 H           6.8222  -20.2378    2.0447 H       1  LIG11       0.0238
     59 H           5.4801  -21.2245    2.6217 H       1  LIG11       0.0238
     60 H          10.7997  -20.2695    6.3228 H       1  LIG11       0.0418
@<TRIPOS>BOND
     1    33     7    1
     2    50     7    1
     3     7    32    1
     4     7     1    1
     5    23    53    1
     6    26    22    1
     7    53    19    1
     8     1    22    1
     9     1     2    2
    10    27     2    1
    11    22    28    1
    12    22    21    1
    13    25    21    1
    14     2     3    1
    15    24    18    1
    16    19    18   ar
    17    19    20   ar
    18    21    20    1
    19    21     4    1
    20    18    17   ar
    21    29     3    1
    22    58    42    1
    23    20     8   ar
    24     3     4    1
    25     3    30    1
    26    59    42    1
    27    40    10    1
    28     4    31    1
    29     4     5    1
    30    42    57    1
    31    42    11    1
    32    17    11    1
    33    17    16   ar
    34    38    10    1
    35    10     5    1
    36    10    39    1
    37    44    12    1
    38     8    16   ar
    39     8    52    1
    40    11    12    1
    41    11    41    1
    42     5    52    1
    43     5     9    1
    44    16     6    1
    45    45    13    1
    46    48    14    1
    47    12    13    1
    48    12    43    1
    49    51    15    1
    50    54    41    1
    51    36     9    1
    52    13    14    1
    53    13    46    1
    54    41    56    1
    55    41    55    1
    56     9    37    1
    57     9    35    1
    58    14    15    1
    59    14    47    1
    60    15    34    1
    61    15    60    1
    62    34    49    3
