@<TRIPOS>MOLECULE
03
 27 27 0 0 0
SMALL
USER_CHARGES

@<TRIPOS>ATOM
      1 C1          1.1340    1.4100    0.9130 C.3     1  MAIN1       0.0612
      2 C2          1.3430    1.6410   -0.6020 C.3     1  MAIN1       0.0600
      3 C3          0.2560    0.9290   -1.4370 C.3     1  MAIN1       0.1073
      4 C4          0.1090   -0.5290   -0.9760 C.3     1  MAIN1       0.2858
      5 C5         -0.1380   -0.5520    0.5380 C.3     1  MAIN1       0.1933
      6 C6         -0.4630   -1.9700    1.0260 C.3     1  MAIN1       0.0591
      7 O1          0.0300    2.1700    1.4090 O.3     1  MAIN1      -0.3723
      8 O2          1.3910    3.0420   -0.8950 O.3     1  MAIN1      -0.6300
      9 O3          0.5380    1.0180   -2.8370 O.3     1  MAIN1      -0.6959
     10 O4         -0.9470   -1.1980   -1.6550 O.3     1  MAIN1      -0.6958
     11 O5          0.9820    0.0140    1.2250 O.3     1  MAIN1      -0.4242
     12 O6          0.3970   -2.9220    0.4070 O.3     1  MAIN1      -0.6595
     13 C7          0.2060    2.4900    2.7880 C.3     1  MAIN1      -0.0278
     14 H1          2.0388    1.7660    1.4273 H       1  MAIN1       0.1988
     15 H2          2.3147    1.2055   -0.8781 H       1  MAIN1       0.1710
     16 H3         -0.7015    1.4393   -1.2559 H       1  MAIN1       0.0762
     17 H4          1.0482   -1.0596   -1.1913 H       1  MAIN1       0.0934
     18 H5         -1.0140    0.0792    0.7482 H       1  MAIN1       0.0771
     19 H6         -1.5070   -2.2086    0.7746 H       1  MAIN1       0.0774
     20 H7         -0.3286   -2.0168    2.1167 H       1  MAIN1       0.0582
     21 H8          2.0666    3.4527   -0.3683 H       1  MAIN1       0.4180
     22 H9          0.6221    1.9310   -3.0856 H       1  MAIN1       0.4492
     23 H10        -0.7845   -1.1781   -2.5908 H       1  MAIN1       0.4457
     24 H11         0.1825   -3.7930    0.7198 H       1  MAIN1       0.4304
     25 H12        -0.6566    3.0737    3.1419 H       1  MAIN1       0.0951
     26 H13         1.1250    3.0815    2.9128 H       1  MAIN1       0.0651
     27 H14         0.2853    1.5616    3.3727 H       1  MAIN1       0.0833
@<TRIPOS>BOND
     1     1     2    1
     2     1     7    1
     3     1    11    1
     4     2     3    1
     5     2     8    1
     6     3     4    1
     7     3     9    1
     8     4     5    1
     9     4    10    1
    10     5     6    1
    11     5    11    1
    12     6    12    1
    13     7    13    1
    14     1    14    1
    15     2    15    1
    16     3    16    1
    17     4    17    1
    18     5    18    1
    19     6    19    1
    20     6    20    1
    21     8    21    1
    22     9    22    1
    23    10    23    1
    24    12    24    1
    25    13    25    1
    26    13    26    1
    27    13    27    1
