@<TRIPOS>MOLECULE
06
 28 28 0 0 0
SMALL
USER_CHARGES

@<TRIPOS>ATOM
      1 C1          1.2230    1.4160    0.8860 C.3     1  MAIN1      -0.0899
      2 C2          1.3800    1.6390   -0.6380 C.3     1  MAIN1       0.1742
      3 C3          0.2640    0.9400   -1.4410 C.3     1  MAIN1       0.1025
      4 C4          0.1100   -0.5130   -0.9700 C.3     1  MAIN1       0.3327
      5 C5         -0.1060   -0.5250    0.5500 C.3     1  MAIN1       0.1578
      6 C6         -0.4430   -1.9370    1.0490 C.3     1  MAIN1       0.0269
      7 C7          0.1050    2.2870    1.4880 C.3     1  MAIN1       0.2684
      8 O2          1.4520    3.0370   -0.9430 O.3     1  MAIN1      -0.6900
      9 O3          0.5180    1.0160   -2.8480 O.3     1  MAIN1      -0.6991
     10 O4         -0.9630   -1.1760   -1.6290 O.3     1  MAIN1      -0.7086
     11 O5          1.0380    0.0270    1.2140 O.3     1  MAIN1      -0.4260
     12 O6          0.3890   -2.9030    0.4150 O.3     1  MAIN1      -0.6559
     13 ****        0.3730    2.5590    2.8780 N.2     1  MAIN1      -0.6638
     14 N2          1.6042    2.1925    3.2801 N.2     1  MAIN1       0.5415
     15 N15         2.6965    1.8668    3.6219 N.1     1  MAIN1      -0.1741
     16 H1          2.1663    1.7344    1.3538 H       1  MAIN1       0.1361
     17 H2          2.3347    1.1845   -0.9412 H       1  MAIN1       0.0715
     18 H3         -0.6819    1.4646   -1.2411 H       1  MAIN1       0.0907
     19 H4          1.0400   -1.0538   -1.1996 H       1  MAIN1       0.0898
     20 H5         -0.9678    0.1205    0.7753 H       1  MAIN1       0.0967
     21 H6         -1.4955   -2.1600    0.8200 H       1  MAIN1       0.0844
     22 H7         -0.2867   -1.9832    2.1368 H       1  MAIN1       0.0788
     23 H8         -0.8545    1.7562    1.4011 H       1  MAIN1       0.0803
     24 H9          0.0495    3.2374    0.9369 H       1  MAIN1       0.0207
     25 H10         2.1470    3.4368   -0.4335 H       1  MAIN1       0.4318
     26 H11         0.6077    1.9262   -3.1049 H       1  MAIN1       0.4470
     27 H12        -0.8160   -1.1608   -2.5674 H       1  MAIN1       0.4441
     28 H13         0.1678   -3.7699    0.7345 H       1  MAIN1       0.4314
@<TRIPOS>BOND
     1     1     2    1
     2     7     1    1
     3     1    11    1
     4     2     3    1
     5     2     8    1
     6     3     4    1
     7     3     9    1
     8     5     4    1
     9     4    10    1
    10     5     6    1
    11    11     5    1
    12     6    12    1
    13    13    14    2
    14    14    15    3
    15    13     7    1
    16     1    16    1
    17     2    17    1
    18     3    18    1
    19     4    19    1
    20     5    20    1
    21     6    21    1
    22     6    22    1
    23     7    23    1
    24     7    24    1
    25     8    25    1
    26     9    26    1
    27    10    27    1
    28    12    28    1
