@<TRIPOS>MOLECULE
13
 34 34 0 0 0
SMALL
USER_CHARGES

@<TRIPOS>ATOM
      1 C1          0.9680    1.5690    0.8820 C.3     1  MAIN1       0.4323
      2 C2          1.2850    1.6390   -0.6270 C.3     1  MAIN1       0.0631
      3 C3          0.1870    0.9590   -1.4590 C.3     1  MAIN1       0.0473
      4 C4         -0.0010   -0.4670   -0.9340 C.3     1  MAIN1       0.1948
      5 C5         -0.4250   -0.4050    0.5390 C.3     1  MAIN1       0.1185
      6 C6         -0.6960   -1.8220    1.0710 C.3     1  MAIN1       0.0892
      7 C7          2.2700    1.8460    1.6200 C.3     1  MAIN1       0.0368
      8 O2          1.5000    2.9960   -1.0330 O.3     1  MAIN1      -0.6409
      9 O3          0.5030    0.9930   -2.8530 O.3     1  MAIN1      -0.6546
     10 O4         -0.9560   -1.2040   -1.6840 O.3     1  MAIN1      -0.6558
     11 O5          0.5690    0.2580    1.3300 O.3     1  MAIN1      -0.3939
     12 O6          0.2540   -2.7500    0.5440 O.3     1  MAIN1      -0.6682
     13 O13         0.0190    2.5830    1.2240 O.3     1  MAIN1      -0.6240
     14 O7          2.0440    2.5650    2.8310 O.3     1  MAIN1      -0.6507
     15 S1          3.2510    2.6280    3.8950 S.O2    1  MAIN1       2.3104
     16 O           4.2082    3.6883    3.6457 O.2     1  MAIN1      -0.9655
     17 O           3.8466    1.3060    3.9031 O.2     1  MAIN1      -0.9577
     18 C8          2.4840    3.0030    5.4580 C.3     1  MAIN1      -0.7561
     19 H1          2.2206    1.0870   -0.7996 H       1  MAIN1       0.1114
     20 H2         -0.7550    1.5082   -1.3141 H       1  MAIN1       0.1280
     21 H3          0.9643   -0.9899   -1.0031 H       1  MAIN1       0.1304
     22 H4         -1.3582    0.1735    0.6061 H       1  MAIN1       0.1056
     23 H5         -1.7080   -2.1325    0.7720 H       1  MAIN1       0.0788
     24 H6         -0.6237   -1.8155    2.1686 H       1  MAIN1       0.0602
     25 H7          2.9295    2.4398    0.9700 H       1  MAIN1       0.1073
     26 H8          2.7558    0.8884    1.8587 H       1  MAIN1       0.1041
     27 H9          2.1834    3.3821   -0.4979 H       1  MAIN1       0.4158
     28 H10         0.6098    1.8949   -3.1315 H       1  MAIN1       0.4279
     29 H11        -0.6862   -1.2376   -2.5943 H       1  MAIN1       0.4367
     30 H12         0.0705   -3.6181    0.8835 H       1  MAIN1       0.4328
     31 H13         0.3269    3.4244    0.9081 H       1  MAIN1       0.4191
     32 H14         3.2553    3.0622    6.2401 H       1  MAIN1       0.2400
     33 H15         1.7639    2.2113    5.7124 H       1  MAIN1       0.2391
     34 H16         1.9592    3.9671    5.3870 H       1  MAIN1       0.2376
@<TRIPOS>BOND
     1     1    11    1
     2     1     2    1
     3     7     1    1
     4     1    13    1
     5    14     7    1
     6     2     8    1
     7     2     3    1
     8    15    16    2
     9     3     9    1
    10     3     4    1
    11    15    17    2
    12     4    10    1
    13     5     4    1
    14    11     5    1
    15     5     6    1
    16     6    12    1
    17    14    15    1
    18    15    18    1
    19     2    19    1
    20     3    20    1
    21     4    21    1
    22     5    22    1
    23     6    23    1
    24     6    24    1
    25     7    25    1
    26     7    26    1
    27     8    27    1
    28     9    28    1
    29    10    29    1
    30    12    30    1
    31    13    31    1
    32    18    32    1
    33    18    33    1
    34    18    34    1
