@<TRIPOS>MOLECULE
14
 29 29 0 0 0
SMALL
USER_CHARGES

@<TRIPOS>ATOM
      1 C1          1.0220    1.2550    0.9150 C.3     1  MAIN1       0.0343
      2 C2          1.2310    1.5050   -0.6010 C.3     1  MAIN1       0.2150
      3 C3          0.1500    0.7880   -1.4330 C.3     1  MAIN1       0.0488
      4 C4          0.0860   -0.7020   -1.0210 C.3     1  MAIN1       0.2693
      5 C5         -0.0470   -0.8000    0.5000 C.3     1  MAIN1       0.0967
      6 C6         -0.2760   -2.2710    0.8780 C.3     1  MAIN1       0.0987
      7 C7         -0.3230    1.8290    1.4970 C.3     1  MAIN1       0.1575
      8 O2          1.3510    2.8810   -0.9580 O.3     1  MAIN1      -0.8266
      9 O3          0.3700    0.9230   -2.8440 O.3     1  MAIN1      -0.6747
     10 O4         -1.0090   -1.3670   -1.6210 O.3     1  MAIN1      -0.6895
     11 O5          1.0900   -0.1770    1.1470 O.3     1  MAIN1      -0.4530
     12 O6          0.6590   -3.0900    0.1710 O.3     1  MAIN1      -0.6677
     13 N1         -0.5265    3.2718    1.3022 N.4     1  MAIN1      -0.5328
     14 H1          1.8488    1.7410    1.4537 H       1  MAIN1       0.1444
     15 H2          2.1924    1.0378   -0.8606 H       1  MAIN1       0.1330
     16 H3         -0.8202    1.2513   -1.2006 H       1  MAIN1       0.1177
     17 H4          1.0167   -1.1959   -1.3371 H       1  MAIN1       0.1127
     18 H5         -0.9415   -0.2377    0.8060 H       1  MAIN1       0.0526
     19 H6         -1.3008   -2.5651    0.6072 H       1  MAIN1       0.0628
     20 H7         -0.1318   -2.3992    1.9609 H       1  MAIN1       0.0888
     21 H8         -0.3394    1.6264    2.5780 H       1  MAIN1       0.1221
     22 H9         -1.1565    1.2998    1.0120 H       1  MAIN1       0.1096
     23 H10         2.0244    3.2885   -0.4261 H       1  MAIN1       0.5585
     24 H11         0.4054    1.8445   -3.0722 H       1  MAIN1       0.4673
     25 H12        -0.9341   -1.3109   -2.5664 H       1  MAIN1       0.4635
     26 H13         0.5203   -4.0009    0.4024 H       1  MAIN1       0.4606
     27 H14        -1.4091    3.5441    1.7059 H       1  MAIN1       0.4595
     28 H15        -0.5294    3.4806    0.3161 H       1  MAIN1       0.5257
     29 H16         0.2194    3.7799    1.7511 H       1  MAIN1       0.4671
@<TRIPOS>BOND
     1     1     2    1
     2     1     7    1
     3     1    11    1
     4     2     3    1
     5     2     8    1
     6     3     4    1
     7     3     9    1
     8     4     5    1
     9     4    10    1
    10     5     6    1
    11    11     5    1
    12     6    12    1
    13     7    13    1
    14     1    14    1
    15     2    15    1
    16     3    16    1
    17     4    17    1
    18     5    18    1
    19     6    19    1
    20     6    20    1
    21     7    21    1
    22     7    22    1
    23     8    23    1
    24     9    24    1
    25    10    25    1
    26    12    26    1
    27    13    27    1
    28    13    28    1
    29    13    29    1
