@<TRIPOS>MOLECULE
24
 38 40 0 0 0
SMALL
USER_CHARGES

@<TRIPOS>ATOM
      1 C1          1.4145    1.1019    0.8430 C.3     1  MAIN1      -0.0156
      2 O21         0.4800    1.7870    1.6810 O.3     1  MAIN1      -0.3934
      3 C2          1.3295    1.5439   -0.6460 C.3     1  MAIN1       0.2240
      4 C3          0.1975    0.8419   -1.4340 C.3     1  MAIN1       0.0285
      5 C4          0.0795   -0.6391   -1.0390 C.3     1  MAIN1       0.3763
      6 C5          0.0215   -0.7351    0.4850 C.3     1  MAIN1       0.1290
      7 C6         -0.3635   -2.1431    0.9500 C.3     1  MAIN1       0.0851
      8 C12         0.3384    2.7971    3.8655 C.ar    1  MAIN1      -0.6890
      9 O2          1.2235    2.9709   -0.7550 O.3     1  MAIN1      -0.6690
     10 O3          0.4035    0.9829   -2.8440 O.3     1  MAIN1      -0.6931
     11 O4         -1.0695   -1.2511   -1.6130 O.3     1  MAIN1      -0.7170
     12 O5          1.2735   -0.3111    1.0170 O.3     1  MAIN1      -0.4002
     13 O6          0.4775   -3.1111    0.3360 O.3     1  MAIN1      -0.6622
     14 C5          0.9984    2.2151    2.8285 C.ar    1  MAIN1       0.5366
     15 C6          1.3444    3.1751    4.8145 C.ar    1  MAIN1       0.1919
     16 C7          1.2704    3.8231    6.0635 C.ar    1  MAIN1      -0.2190
     17 C8          2.5934    2.8021    4.3125 C.ar    1  MAIN1       0.1217
     18 N2          2.4044    2.1411    3.0635 N.ar    1  MAIN1      -0.6392
     19 C9          2.4494    4.0801    6.7455 C.ar    1  MAIN1      -0.1862
     20 C10         3.7954    3.0661    4.9855 C.ar    1  MAIN1      -0.2662
     21 C11         3.7034    3.7101    6.2115 C.ar    1  MAIN1      -0.1271
     22 H1          2.4220    1.3722    1.1922 H       1  MAIN1       0.2051
     23 H2          2.2774    1.2492   -1.1199 H       1  MAIN1       0.1454
     24 H3         -0.7511    1.3363   -1.1779 H       1  MAIN1       0.1008
     25 H4          0.9723   -1.1718   -1.3982 H       1  MAIN1       0.0694
     26 H5         -0.7547   -0.0436    0.8446 H       1  MAIN1       0.0993
     27 H6         -1.4093   -2.3434    0.6741 H       1  MAIN1       0.0816
     28 H7         -0.2537   -2.2074    2.0426 H       1  MAIN1       0.0525
     29 H8         -0.7365    2.9459    3.9566 H       1  MAIN1       0.2935
     30 H9          1.9273    3.3791   -0.2644 H       1  MAIN1       0.4394
     31 H10         0.4732    1.9047   -3.0632 H       1  MAIN1       0.4507
     32 H11        -1.0234   -1.1859   -2.5596 H       1  MAIN1       0.4535
     33 H12         0.2295   -3.9791    0.6317 H       1  MAIN1       0.4301
     34 H13         0.3134    4.1140    6.4814 H       1  MAIN1       0.1849
     35 H14         3.1217    1.7074    2.4649 H       1  MAIN1       0.4945
     36 H15         2.4081    4.5755    7.7089 H       1  MAIN1       0.1527
     37 H16         4.7534    2.7800    4.5668 H       1  MAIN1       0.1818
     38 H17         4.6072    3.9324    6.7673 H       1  MAIN1       0.1491
@<TRIPOS>BOND
     1     1     3    1
     2    14     8   ar
     3     1    12    1
     4     3     4    1
     5     3     9    1
     6     4     5    1
     7     4    10    1
     8     6     5    1
     9     5    11    1
    10     6     7    1
    11     7    13    1
    12     8    15   ar
    13    15    16   ar
    14    17    15   ar
    15    18    17   ar
    16    17    20   ar
    17    20    21   ar
    18    21    19   ar
    19    16    19   ar
    20    14    18   ar
    21     2     1    1
    22    12     6    1
    23     2    14    1
    24     1    22    1
    25     3    23    1
    26     4    24    1
    27     5    25    1
    28     6    26    1
    29     7    27    1
    30     7    28    1
    31     8    29    1
    32     9    30    1
    33    10    31    1
    34    11    32    1
    35    13    33    1
    36    16    34    1
    37    18    35    1
    38    19    36    1
    39    20    37    1
    40    21    38    1
