@<TRIPOS>MOLECULE
28
 37 38 0 0 0
SMALL
USER_CHARGES

@<TRIPOS>ATOM
      1 C1          1.1620    1.4080    0.8620 C.3     1  MAIN1      -0.3291
      2 C2          1.3190    1.6870   -0.6480 C.3     1  MAIN1       0.3731
      3 C3          0.2580    0.9370   -1.4890 C.3     1  MAIN1       0.0042
      4 C4          0.1640   -0.5350   -1.0540 C.3     1  MAIN1       0.3662
      5 C5         -0.0180   -0.5880    0.4630 C.3     1  MAIN1      -0.0141
      6 C6         -0.3540   -1.9990    0.9600 C.3     1  MAIN1       0.1554
      7 C1         -0.0620    2.0610    1.4640 C.2     1  MAIN1       0.9914
      8 O2          1.3210    3.0930   -0.9050 O.3     1  MAIN1      -0.7830
      9 O3          0.5360    1.0460   -2.8860 O.3     1  MAIN1      -0.6985
     10 O4         -0.9140   -1.2060   -1.6900 O.3     1  MAIN1      -0.7093
     11 O5          1.1190   -0.0080    1.1150 O.3     1  MAIN1      -0.3743
     12 O6          0.4780   -2.9650    0.3300 O.3     1  MAIN1      -0.6759
     13 N20        -0.7280    3.2070    0.9400 N.am    1  MAIN1      -1.1161
     14 O1         -0.4890    1.6230    2.5230 O.2     1  MAIN1      -0.6295
     15 C          -2.1370    3.3472    0.9361 C.ar    1  MAIN1       0.5903
     16 C          -2.7260    4.5302    1.3961 C.ar    1  MAIN1      -0.4438
     17 C          -4.1010    4.7082    1.2691 C.ar    1  MAIN1      -0.0220
     18 C          -4.8790    3.7202    0.6651 C.ar    1  MAIN1      -0.2702
     19 C          -4.2840    2.5532    0.1821 C.ar    1  MAIN1      -0.0429
     20 C          -2.9100    2.3642    0.3101 C.ar    1  MAIN1      -0.3774
     21 H1          2.0464    1.8220    1.3684 H       1  MAIN1       0.2290
     22 H2          2.3025    1.2990   -0.9517 H       1  MAIN1       0.0744
     23 H3         -0.7180    1.4085   -1.3020 H       1  MAIN1       0.1324
     24 H4          1.1011   -1.0440   -1.3235 H       1  MAIN1       0.0602
     25 H5         -0.8845    0.0437    0.7082 H       1  MAIN1       0.1110
     26 H6         -1.4059   -2.2225    0.7286 H       1  MAIN1       0.0323
     27 H7         -0.2003   -2.0447    2.0482 H       1  MAIN1       0.0744
     28 H8          1.9847    3.5118   -0.3696 H       1  MAIN1       0.4990
     29 H9          0.5887    1.9632   -3.1277 H       1  MAIN1       0.4501
     30 H10        -0.7972   -1.1708   -2.6321 H       1  MAIN1       0.4371
     31 H11         0.2555   -3.8314    0.6499 H       1  MAIN1       0.4324
     32 H12        -0.1743    3.9466    0.5572 H       1  MAIN1       0.6065
     33 H13        -2.1155    5.3033    1.8485 H       1  MAIN1       0.1979
     34 H14        -4.5669    5.6142    1.6394 H       1  MAIN1       0.1387
     35 H15        -5.9499    3.8592    0.5704 H       1  MAIN1       0.1613
     36 H16        -4.8926    1.7927   -0.2935 H       1  MAIN1       0.1439
     37 H17        -2.4440    1.4632   -0.0721 H       1  MAIN1       0.2248
@<TRIPOS>BOND
     1     1    11    1
     2     7     1    1
     3     1     2    1
     4     2     8    1
     5     2     3    1
     6     3     9    1
     7     3     4    1
     8     4    10    1
     9     5     4    1
    10    11     5    1
    11     5     6    1
    12     6    12    1
    13    15    16   ar
    14     7    14    2
    15    13     7   am
    16    15    20   ar
    17    20    19   ar
    18    19    18   ar
    19    17    18   ar
    20    16    17   ar
    21    13    15    1
    22     1    21    1
    23     2    22    1
    24     3    23    1
    25     4    24    1
    26     5    25    1
    27     6    26    1
    28     6    27    1
    29     8    28    1
    30     9    29    1
    31    10    30    1
    32    12    31    1
    33    13    32    1
    34    16    33    1
    35    17    34    1
    36    18    35    1
    37    19    36    1
    38    20    37    1
