@<TRIPOS>MOLECULE
51
 38 39 0 0 0
SMALL
USER_CHARGES

@<TRIPOS>ATOM
      1 C1          0.5470    1.2600    1.1830 C.3     1  MAIN1      -0.3213
      2 C2          1.0110    1.5960   -0.2630 C.3     1  MAIN1       0.2833
      3 C3          0.1260    0.8350   -1.2770 C.3     1  MAIN1       0.0446
      4 C4          0.0030   -0.6490   -0.8790 C.3     1  MAIN1       0.3649
      5 C5         -0.4080   -0.7680    0.5980 C.3     1  MAIN1       0.0013
      6 C6         -0.6200   -2.2310    1.0000 C.3     1  MAIN1       0.1058
      7 O1          0.7180    2.8200    2.9540 O.2     1  MAIN1      -0.6479
      8 O2          0.9620    3.0050   -0.5300 O.3     1  MAIN1      -0.6982
      9 O3          0.5890    0.9950   -2.6280 O.3     1  MAIN1      -0.6977
     10 O4         -0.9380   -1.3340   -1.6910 O.3     1  MAIN1      -0.7047
     11 O5          0.5640   -0.1440    1.4250 O.3     1  MAIN1      -0.3106
     12 O6          0.3910   -3.0510    0.4250 O.3     1  MAIN1      -0.6544
     13 H12         1.3000    1.9840    2.2640 C.2     1  MAIN1       0.8988
     14 N1          2.6890    1.6800    2.4370 N.am    1  MAIN1      -0.9044
     15 C           3.6055    2.2845    3.3312 C.ar    1  MAIN1       0.4169
     16 C           4.9615    2.1225    3.0332 C.ar    1  MAIN1      -0.3209
     17 C           5.9375    2.7665    3.7902 C.ar    1  MAIN1      -0.2477
     18 C           5.5625    3.5655    4.8692 C.ar    1  MAIN1       0.3696
     19 C           4.2135    3.6865    5.2182 C.ar    1  MAIN1      -0.3677
     20 C           3.2405    3.0535    4.4462 C.ar    1  MAIN1      -0.2459
     21 O7          6.5384    4.2578    5.5767 O.3     1  MAIN1      -0.6128
     22 H1         -0.5000    1.5892    1.2559 H       1  MAIN1       0.1877
     23 H2          2.0517    1.2595   -0.3797 H       1  MAIN1       0.0719
     24 H3         -0.8817    1.2733   -1.2271 H       1  MAIN1       0.1116
     25 H4          0.9862   -1.1243   -1.0109 H       1  MAIN1       0.0797
     26 H5         -1.3629   -0.2386    0.7317 H       1  MAIN1       0.1075
     27 H6         -1.6054   -2.5663    0.6443 H       1  MAIN1       0.0914
     28 H7         -0.5772   -2.3164    2.0958 H       1  MAIN1       0.0441
     29 H8          1.5078    3.4652    0.0967 H       1  MAIN1       0.4501
     30 H9          0.6512    1.9203   -2.8339 H       1  MAIN1       0.4563
     31 H10        -0.6827   -1.2596   -2.6030 H       1  MAIN1       0.4523
     32 H11         0.2492   -3.9548    0.6810 H       1  MAIN1       0.4264
     33 H13         3.0557    0.9532    1.8562 H       1  MAIN1       0.4908
     34 H14         5.2566    1.4892    2.2045 H       1  MAIN1       0.2035
     35 H15         6.9856    2.6467    3.5410 H       1  MAIN1       0.2137
     36 H16         3.9258    4.2700    6.0853 H       1  MAIN1       0.2056
     37 H17         2.1940    3.1563    4.7095 H       1  MAIN1       0.2221
     38 H18         6.1302    4.7535    6.2768 H       1  MAIN1       0.4344
@<TRIPOS>BOND
     1     1    11    1
     2    13     7    2
     3     1     2    1
     4     2     8    1
     5     2     3    1
     6     3     9    1
     7     3     4    1
     8     4    10    1
     9     5     4    1
    10    11     5    1
    11     5     6    1
    12     6    12    1
    13    13     1    1
    14    14    13   am
    15    15    16   ar
    16    15    20   ar
    17    20    19   ar
    18    19    18   ar
    19    17    18   ar
    20    16    17   ar
    21    14    15    1
    22    18    21    1
    23     1    22    1
    24     2    23    1
    25     3    24    1
    26     4    25    1
    27     5    26    1
    28     6    27    1
    29     6    28    1
    30     8    29    1
    31     9    30    1
    32    10    31    1
    33    12    32    1
    34    14    33    1
    35    16    34    1
    36    17    35    1
    37    19    36    1
    38    20    37    1
    39    21    38    1
