@<TRIPOS>MOLECULE
53
 33 33 0 0 0
SMALL
USER_CHARGES

@<TRIPOS>ATOM
      1 C1          0.1620    1.2400    1.0440 C.3     1  MAIN1      -0.3759
      2 C2          0.7610    1.5250   -0.3490 C.3     1  MAIN1       0.3304
      3 C3         -0.0980    0.7310   -1.3630 C.3     1  MAIN1       0.0324
      4 C4         -0.1820   -0.7520   -0.9220 C.3     1  MAIN1       0.3638
      5 C5         -0.5510   -0.8750    0.5680 C.3     1  MAIN1       0.0373
      6 C6         -0.6020   -2.3350    1.0230 C.3     1  MAIN1       0.0435
      7 O1          0.0540    2.8960    2.7590 O.2     1  MAIN1      -0.6178
      8 O2          0.8000    2.9360   -0.6320 O.3     1  MAIN1      -0.6867
      9 O3          0.3630    0.8900   -2.7140 O.3     1  MAIN1      -0.6929
     10 O4         -1.1330   -1.4720   -1.6800 O.3     1  MAIN1      -0.7085
     11 O5          0.3490   -0.1280    1.3670 O.3     1  MAIN1      -0.3426
     12 O6          0.4320   -3.0830    0.3910 O.3     1  MAIN1      -0.6469
     13 H12         0.7320    2.0900    2.1320 C.2     1  MAIN1       0.9043
     14 N1          2.0810    1.8830    2.3750 N.am    1  MAIN1      -0.7700
     15 C7          2.8590    2.6110    3.3950 C.3     1  MAIN1      -0.4286
     16 C8          4.2040    1.9140    3.5550 C.3     1  MAIN1       1.4905
     17 F1          4.9370    2.5020    4.5840 F       1  MAIN1      -0.4794
     18 F2          4.9240    1.9560    2.3760 F       1  MAIN1      -0.4434
     19 F16         3.9020    0.5970    3.8330 F       1  MAIN1      -0.4574
     20 H1         -0.9177    1.4434    0.9917 H       1  MAIN1       0.1930
     21 H2          1.7930    1.1456   -0.3825 H       1  MAIN1       0.0677
     22 H3         -1.1175    1.1423   -1.3250 H       1  MAIN1       0.1099
     23 H4          0.8067   -1.2084   -1.0774 H       1  MAIN1       0.0907
     24 H5         -1.5561   -0.4484    0.7009 H       1  MAIN1       0.1068
     25 H6         -1.5780   -2.7655    0.7545 H       1  MAIN1       0.1038
     26 H7         -0.4687   -2.3806    2.1139 H       1  MAIN1       0.0603
     27 H8          1.3378    3.3744    0.0169 H       1  MAIN1       0.4340
     28 H9          0.3952    1.8144   -2.9308 H       1  MAIN1       0.4515
     29 H10        -0.9183   -1.4054   -2.6030 H       1  MAIN1       0.4543
     30 H11         0.3911   -3.9869    0.6804 H       1  MAIN1       0.4338
     31 H13         2.5565    1.1971    1.8242 H       1  MAIN1       0.5014
     32 H14         2.3183    2.6012    4.3529 H       1  MAIN1       0.2129
     33 H15         3.0147    3.6510    3.0724 H       1  MAIN1       0.2278
@<TRIPOS>BOND
     1     1    11    1
     2    13     7    2
     3     1     2    1
     4     2     8    1
     5     2     3    1
     6     3     9    1
     7     3     4    1
     8     4    10    1
     9     5     4    1
    10    11     5    1
    11     5     6    1
    12     6    12    1
    13     1    13    1
    14    13    14   am
    15    14    15    1
    16    15    16    1
    17    16    17    1
    18    16    18    1
    19    16    19    1
    20     1    20    1
    21     2    21    1
    22     3    22    1
    23     4    23    1
    24     5    24    1
    25     6    25    1
    26     6    26    1
    27     8    27    1
    28     9    28    1
    29    10    29    1
    30    12    30    1
    31    14    31    1
    32    15    32    1
    33    15    33    1
