@<TRIPOS>MOLECULE
58
 32 33 0 0 0
SMALL
USER_CHARGES

@<TRIPOS>ATOM
      1 C1          1.3130    1.2020    0.9230 C.3     1  MAIN1       0.5603
      2 C2          1.3450    1.5670   -0.5930 C.3     1  MAIN1       0.0868
      3 C3          0.2340    0.8830   -1.4220 C.3     1  MAIN1       0.0636
      4 C4          0.0660   -0.5860   -1.0050 C.3     1  MAIN1       0.2493
      5 C5         -0.1150   -0.6630    0.5090 C.3     1  MAIN1       0.0438
      6 C6         -0.4610   -2.0890    0.9510 C.3     1  MAIN1       0.0497
      7 O2          1.3280    2.9870   -0.7900 O.3     1  MAIN1      -0.6274
      8 O3          0.5120    1.0010   -2.8220 O.3     1  MAIN1      -0.6761
      9 O4         -1.0480   -1.1960   -1.6450 O.3     1  MAIN1      -0.6697
     10 O5          1.0670   -0.1900    1.1540 O.3     1  MAIN1      -0.4146
     11 O6          0.4430   -3.0160    0.3610 O.3     1  MAIN1      -0.6579
     12 N1          2.6730    1.4300    1.4430 N.am    1  MAIN1      -0.9612
     13 C7          2.9530    1.8990    2.7220 C.2     1  MAIN1       0.8460
     14 N2          0.5650    2.4580    2.9720 N.am    1  MAIN1      -0.6941
     15 C8          0.2930    2.0310    1.6740 C.2     1  MAIN1       0.5902
     16 O1          4.1280    2.0470    3.0590 O.2     1  MAIN1      -0.6087
     17 O7         -0.7810    2.3520    1.1710 O.2     1  MAIN1      -0.5828
     18 C9          1.8270    2.1750    3.6770 C.3     1  MAIN1      -0.1748
     19 H1          2.3040    1.1969   -0.9845 H       1  MAIN1       0.0829
     20 H2         -0.7138    1.4028   -1.2186 H       1  MAIN1       0.1394
     21 H3          0.9759   -1.1363   -1.2867 H       1  MAIN1       0.1191
     22 H4         -0.9506   -0.0064    0.7929 H       1  MAIN1       0.1205
     23 H5         -1.4867   -2.3293    0.6346 H       1  MAIN1       0.1013
     24 H6         -0.3895   -2.1579    2.0465 H       1  MAIN1       0.0655
     25 H7          2.0172    3.3867   -0.2726 H       1  MAIN1       0.4111
     26 H8          0.6104    1.9182   -3.0491 H       1  MAIN1       0.4512
     27 H9         -0.9367   -1.1488   -2.5873 H       1  MAIN1       0.4442
     28 H10         0.2210   -3.8964    0.6404 H       1  MAIN1       0.4371
     29 H11         3.4442    1.2349    0.8371 H       1  MAIN1       0.4558
     30 H12        -0.1356    2.9861    3.4518 H       1  MAIN1       0.4394
     31 H13         2.0911    3.0450    4.2962 H       1  MAIN1       0.1613
     32 H14         1.6843    1.2955    4.3221 H       1  MAIN1       0.1487
@<TRIPOS>BOND
     1     1    12    1
     2    12    13   am
     3     1    10    1
     4     1     2    1
     5     2     7    1
     6     2     3    1
     7     3     8    1
     8     3     4    1
     9     4     9    1
    10     5     4    1
    11     5     6    1
    12    10     5    1
    13     6    11    1
    14    13    18    1
    15    15    14   am
    16     1    15    1
    17    13    16    2
    18    15    17    2
    19    14    18    1
    20     2    19    1
    21     3    20    1
    22     4    21    1
    23     5    22    1
    24     6    23    1
    25     6    24    1
    26     7    25    1
    27     8    26    1
    28     9    27    1
    29    11    28    1
    30    12    29    1
    31    14    30    1
    32    18    31    1
    33    18    32    1
