@<TRIPOS>MOLECULE
60
 36 36 0 0 0
SMALL
USER_CHARGES

@<TRIPOS>ATOM
      1 C1          0.4330    1.2830    1.1540 C.3     1  MAIN1      -0.5303
      2 C2          0.9410    1.5900   -0.2790 C.3     1  MAIN1       0.4128
      3 C3          0.0700    0.8270   -1.3010 C.3     1  MAIN1       0.1244
      4 C4         -0.0500   -0.6540   -0.8910 C.3     1  MAIN1       0.2462
      5 C5         -0.4950   -0.7670    0.5760 C.3     1  MAIN1      -0.0262
      6 C6         -0.6760   -2.2300    0.9890 C.3     1  MAIN1       0.1141
      7 O2          0.9320    2.9980   -0.5570 O.3     1  MAIN1      -0.6679
      8 O3          0.5570    0.9800   -2.6440 O.3     1  MAIN1      -0.6801
      9 O4         -0.9650   -1.3570   -1.7120 O.3     1  MAIN1      -0.6876
     10 O5          0.4440   -0.1170    1.4180 O.3     1  MAIN1      -0.2910
     11 O6          0.3670   -3.0300    0.4410 O.3     1  MAIN1      -0.6647
     12 C7          1.2020    1.9890    2.2260 C.2     1  MAIN1       0.9377
     13 N1          2.5300    1.6300    2.4270 N.am    1  MAIN1      -0.9236
     14 O1          0.6840    2.8610    2.9240 O.2     1  MAIN1      -0.6126
     15 C8          3.3340    2.3140    3.4560 C.3     1  MAIN1       0.2729
     16 C9          4.8290    2.1000    3.2040 C.3     1  MAIN1      -0.5141
     17 C10         5.6840    2.9400    4.1680 C.3     1  MAIN1       1.3934
     18 F1          7.0220    2.5910    4.0180 F       1  MAIN1      -0.4594
     19 F2          5.2940    2.7130    5.4850 F       1  MAIN1      -0.4479
     20 F3          5.5340    4.2870    3.8720 F       1  MAIN1      -0.4310
     21 H1         -0.6089    1.6312    1.2095 H       1  MAIN1       0.2335
     22 H2          1.9774    1.2315   -0.3641 H       1  MAIN1       0.0762
     23 H3         -0.9393    1.2633   -1.2694 H       1  MAIN1       0.1243
     24 H4          0.9405   -1.1207   -0.9964 H       1  MAIN1       0.0975
     25 H5         -1.4651   -0.2594    0.6823 H       1  MAIN1       0.1179
     26 H6         -1.6456   -2.5944    0.6189 H       1  MAIN1       0.0564
     27 H7         -0.6513   -2.3032    2.0863 H       1  MAIN1       0.0555
     28 H8          1.4720    3.4501    0.0806 H       1  MAIN1       0.4160
     29 H9         -0.0032    0.4979   -3.2408 H       1  MAIN1       0.4305
     30 H10        -1.0120   -2.2630   -1.4300 H       1  MAIN1       0.4370
     31 H11         0.2438   -3.9345    0.7040 H       1  MAIN1       0.4374
     32 H12         2.9407    0.9063    1.8724 H       1  MAIN1       0.4928
     33 H13         3.0731    1.9106    4.4456 H       1  MAIN1       0.0567
     34 H14         3.1138    3.3914    3.4295 H       1  MAIN1       0.0527
     35 H15         5.0635    2.3921    2.1698 H       1  MAIN1       0.1759
     36 H16         5.0679    1.0359    3.3476 H       1  MAIN1       0.1745
@<TRIPOS>BOND
     1     1     2    1
     2     1    10    1
     3    10     5    1
     4     5     6    1
     5     5     4    1
     6     4     9    1
     7     4     3    1
     8     3     8    1
     9     3     2    1
    10     2     7    1
    11     6    11    1
    12     1    12    1
    13    12    13   am
    14    12    14    2
    15    13    15    1
    16    15    16    1
    17    16    17    1
    18    17    18    1
    19    17    19    1
    20    17    20    1
    21     1    21    1
    22     2    22    1
    23     3    23    1
    24     4    24    1
    25     5    25    1
    26     6    26    1
    27     6    27    1
    28     7    28    1
    29     8    29    1
    30     9    30    1
    31    11    31    1
    32    13    32    1
    33    15    33    1
    34    15    34    1
    35    16    35    1
    36    16    36    1
