@<TRIPOS>MOLECULE
cpd_04
 47 50 0 0 0
SMALL
GASTEIGER
Energy = 0

@<TRIPOS>ATOM
      1 C1         -2.9613    1.7181   -1.6734 C.ar    1  <0>1       -0.0614
      2 C2         -2.3591    2.9773   -1.6619 C.ar    1  <0>1       -0.0615
      3 C3         -1.0432    3.1067   -1.2170 C.ar    1  <0>1       -0.0577
      4 C4         -0.3478    1.9772   -0.7859 C.ar    1  <0>1       -0.0352
      5 C5         -0.9308    0.7662   -0.7817 C.ar    1  <0>1       -0.0265
      6 C6         -2.2421    0.6057   -1.2329 C.ar    1  <0>1       -0.0568
      7 C7          1.0913    1.9329   -0.2915 C.3     1  <0>1        0.0113
      8 C8          0.0162   -0.3024   -0.2610 C.3     1  <0>1        0.0366
      9 C9          1.1344    0.5436    0.4074 C.3     1  <0>1       -0.0223
     10 C10         2.1435    2.1411   -1.3606 C.ar    1  <0>1       -0.0397
     11 N1         -0.6333   -1.2682    0.6399 N.3     1  <0>1       -0.2989
     12 C11         2.9043    3.3199   -1.3634 C.ar    1  <0>1       -0.0553
     13 C12         3.8718    3.5431   -2.3447 C.ar    1  <0>1       -0.0262
     14 C13         4.1004    2.5942   -3.3381 C.ar    1  <0>1        0.1234
     15 C14         3.3501    1.4207   -3.3455 C.ar    1  <0>1       -0.0262
     16 C15         2.3794    1.1949   -2.3676 C.ar    1  <0>1       -0.0553
     17 F1          5.0178    2.8046   -4.2650 F       1  <0>1       -0.2055
     18 C16        -1.3568   -0.7119    1.7871 C.3     1  <0>1       -0.0154
     19 C17         0.2479   -2.3624    1.0448 C.3     1  <0>1       -0.0154
     20 C18        -0.5454   -3.4728    1.7479 C.3     1  <0>1       -0.0778
     21 C19        -2.1838   -1.7992    2.4850 C.3     1  <0>1       -0.0778
     22 N2         -1.3187   -2.9426    2.9148 N.4     1  <0>1        0.3795
     23 C20        -2.1441   -4.0231    3.5334 C.3     1  <0>1       -0.1031
     24 H1         -0.6653   -2.6069    3.6050 H       1  <0>1       -0.0821
     25 H2         -3.9973    1.6052   -2.0356 H       1  <0>1        0.0618
     26 H3         -2.9156    3.8631   -2.0130 H       1  <0>1        0.0618
     27 H4         -0.5516    4.0941   -1.2186 H       1  <0>1        0.0621
     28 H5         -2.7080   -0.3926   -1.2492 H       1  <0>1        0.0621
     29 H6          1.2141    2.7201    0.4897 H       1  <0>1        0.0398
     30 H7          0.4214   -0.8501   -1.1385 H       1  <0>1        0.0512
     31 H8          2.1339    0.0606    0.3354 H       1  <0>1        0.0293
     32 H9          0.9209    0.6884    1.4896 H       1  <0>1        0.0293
     33 H10         2.7403    4.0901   -0.5903 H       1  <0>1        0.0621
     34 H11         4.4642    4.4726   -2.3428 H       1  <0>1        0.0646
     35 H12         3.5288    0.6755   -4.1377 H       1  <0>1        0.0646
     36 H13         1.7918    0.2653   -2.4119 H       1  <0>1        0.0621
     37 H14        -0.6502   -0.2618    2.5147 H       1  <0>1        0.0408
     38 H15        -2.0382    0.0988    1.4562 H       1  <0>1        0.0408
     39 H16         0.7501   -2.7897    0.1506 H       1  <0>1        0.0408
     40 H17         1.0484   -1.9825    1.7148 H       1  <0>1        0.0408
     41 H18         0.1549   -4.2772    2.0732 H       1  <0>1        0.0071
     42 H19        -1.2394   -3.9375    1.0089 H       1  <0>1        0.0071
     43 H20        -2.9735   -2.1558    1.7832 H       1  <0>1        0.0071
     44 H21        -2.7137   -1.3564    3.3605 H       1  <0>1        0.0071
     45 H22        -2.7050   -3.6470    4.4186 H       1  <0>1        0.0023
     46 H23        -2.8879   -4.4332    2.8144 H       1  <0>1        0.0023
     47 H24        -1.5090   -4.8696    3.8791 H       1  <0>1        0.0023
@<TRIPOS>BOND
     1     1     2   ar
     2     1     6   ar
     3     1    25    1
     4     2     3   ar
     5     2    26    1
     6     3     4   ar
     7     3    27    1
     8     4     5   ar
     9     4     7    1
    10     5     6   ar
    11     5     8    1
    12     6    28    1
    13     7    10    1
    14     7     9    1
    15     7    29    1
    16     8    11    1
    17     8     9    1
    18     8    30    1
    19     9    31    1
    20     9    32    1
    21    10    12   ar
    22    10    16   ar
    23    11    18    1
    24    11    19    1
    25    12    13   ar
    26    12    33    1
    27    13    14   ar
    28    13    34    1
    29    14    15   ar
    30    14    17    1
    31    15    16   ar
    32    15    35    1
    33    16    36    1
    34    18    21    1
    35    18    37    1
    36    18    38    1
    37    19    20    1
    38    19    39    1
    39    19    40    1
    40    20    22    1
    41    20    41    1
    42    20    42    1
    43    21    22    1
    44    21    43    1
    45    21    44    1
    46    22    23    1
    47    22    24    1
    48    23    45    1
    49    23    46    1
    50    23    47    1
