@<TRIPOS>MOLECULE
cpd_31
 51 54 0 0 0
SMALL
GASTEIGER
Energy = 0

@<TRIPOS>ATOM
      1 N1         -0.0842   -1.4538   -1.5700 N.ar    1  <0>1       -0.1781
      2 N2         -1.6536   -3.0356    3.2815 N.4     1  <0>1        0.3799
      3 C1          3.0321    1.0130   -2.8585 C.ar    1  <0>1       -0.0512
      4 C2          3.9529    1.9617   -3.3111 C.ar    1  <0>1       -0.0428
      5 C3          4.1732    3.1248   -2.5796 C.ar    1  <0>1        0.0410
      6 C4          3.4683    3.3456   -1.3994 C.ar    1  <0>1       -0.0428
      7 C5          2.5406    2.4011   -0.9532 C.ar    1  <0>1       -0.0512
      8 C6          2.3171    1.2137   -1.6679 C.ar    1  <0>1       -0.0001
      9 C7          1.3754    0.2084   -1.1855 C.ar    1  <0>1        0.0660
     10 C8          0.9092   -0.1967    0.0557 C.ar    1  <0>1       -0.0131
     11 C9         -0.0123   -1.2426   -0.2519 C.ar    1  <0>1        0.0663
     12 H1          1.1821    0.1919    1.0357 H       1  <0>1        0.0657
     13 C10        -0.8546   -2.1063    0.6422 C.3     1  <0>1       -0.0003
     14 C11         0.0001   -3.0966    1.4451 C.3     1  <0>1       -0.0597
     15 C12        -0.8476   -3.9451    2.3770 C.3     1  <0>1       -0.0900
     16 C13        -2.5951   -2.1716    2.4752 C.3     1  <0>1       -0.0900
     17 C14        -1.7827   -1.2840    1.5468 C.3     1  <0>1       -0.0597
     18 C15        -2.3483   -3.8308    4.3817 C.3     1  <0>1       -0.0866
     19 C16        -2.8629   -2.9049    5.4888 C.3     1  <0>1       -0.0426
     20 C17        -3.1306   -3.6707    6.7571 C.ar    1  <0>1       -0.0491
     21 C18        -4.3368   -4.3622    6.9315 C.ar    1  <0>1       -0.0586
     22 C19        -4.5672   -5.0887    8.1006 C.ar    1  <0>1       -0.0615
     23 C20        -3.5969   -5.1303    9.1004 C.ar    1  <0>1       -0.0617
     24 C21        -2.3956   -4.4464    8.9357 C.ar    1  <0>1       -0.0615
     25 C22        -2.1610   -3.7199    7.7684 C.ar    1  <0>1       -0.0586
     26 N3          0.7809   -0.5517   -2.1472 N.ar    1  <0>1       -0.2767
     27 H2          2.8869    0.1079   -3.4460 H       1  <0>1        0.0625
     28 H3          4.4983    1.7889   -4.2358 H       1  <0>1        0.0632
     29 Cl1         5.3266    4.3124   -3.1470 Cl      1  <0>1       -0.0835
     30 H4          3.6312    4.2608   -0.8352 H       1  <0>1        0.0632
     31 H5          1.9880    2.6199   -0.0447 H       1  <0>1        0.0625
     32 H6          0.9634   -0.4592   -3.2168 H       1  <0>1        0.1889
     33 H7         -1.5118   -2.7107   -0.0006 H       1  <0>1        0.0363
     34 H8          0.5512   -3.7542    0.7602 H       1  <0>1        0.0253
     35 H9          0.7573   -2.5682    2.0352 H       1  <0>1        0.0253
     36 H10        -1.5505   -4.5864    1.8343 H       1  <0>1        0.0059
     37 H11        -0.2054   -4.5631    3.0134 H       1  <0>1        0.0059
     38 H12        -3.2747   -2.8340    1.9283 H       1  <0>1        0.0059
     39 H13        -3.1687   -1.5523    3.1706 H       1  <0>1        0.0059
     40 H14        -2.4626   -0.6807    0.9343 H       1  <0>1        0.0253
     41 H15        -1.2074   -0.5754    2.1545 H       1  <0>1        0.0253
     42 H16        -3.1530   -4.4120    3.9175 H       1  <0>1        0.0062
     43 H17        -1.5978   -4.5213    4.7818 H       1  <0>1        0.0062
     44 H18        -2.1370   -2.1078    5.6954 H       1  <0>1        0.0295
     45 H19        -3.7845   -2.3998    5.1727 H       1  <0>1        0.0295
     46 H20        -5.1153   -4.3375    6.1731 H       1  <0>1        0.0620
     47 H21        -5.5069   -5.6186    8.2400 H       1  <0>1        0.0618
     48 H22        -3.7824   -5.6931   10.0144 H       1  <0>1        0.0618
     49 H23        -1.6456   -4.4764    9.7236 H       1  <0>1        0.0618
     50 H24        -1.2160   -3.1883    7.6703 H       1  <0>1        0.0620
     51 H25        -1.0045   -2.4136    3.7373 H       1  <0>1       -0.0818
@<TRIPOS>BOND
     1     1    26   ar
     2     1    11   ar
     3     2    16    1
     4     2    15    1
     5     2    18    1
     6     2    51    1
     7     3    27    1
     8     3     4   ar
     9     3     8   ar
    10     4    28    1
    11     4     5   ar
    12     5    29    1
    13     5     6   ar
    14     6     7   ar
    15     6    30    1
    16     7     8   ar
    17     7    31    1
    18     8     9    1
    19     9    26   ar
    20     9    10   ar
    21    10    11   ar
    22    10    12    1
    23    11    13    1
    24    26    32    1
    25    13    33    1
    26    13    17    1
    27    13    14    1
    28    14    34    1
    29    14    15    1
    30    14    35    1
    31    15    36    1
    32    15    37    1
    33    16    38    1
    34    16    17    1
    35    16    39    1
    36    17    40    1
    37    17    41    1
    38    18    42    1
    39    18    43    1
    40    18    19    1
    41    19    45    1
    42    19    20    1
    43    19    44    1
    44    20    21   ar
    45    20    25   ar
    46    21    46    1
    47    21    22   ar
    48    22    47    1
    49    22    23   ar
    50    23    48    1
    51    23    24   ar
    52    24    25   ar
    53    24    49    1
    54    25    50    1
