#	Name:			ro17_2620
#	Creating user name:	becker
#	Creation time:		Wed Apr 19 13:40:35 2006

#	Modifying user name:	becker
#	Modification time:	Wed Apr 19 13:40:35 2006

@<TRIPOS>MOLECULE
ro17_2620
   43    46     1     0     0
SMALL
NO_CHARGES


@<TRIPOS>ATOM
      1 C           1.310000   -3.659000   -0.404000 C.ar      1 <1>         0.000000 
      2 H           0.987000   -4.691000   -0.301000 H         1 <1>         0.000000 
      3 C           2.632000   -3.368000   -0.743000 C.ar      1 <1>         0.000000 
      4 C           3.035000   -2.041000   -0.905000 C.ar      1 <1>         0.000000 
      5 H           4.058000   -1.847000   -1.208000 H         1 <1>         0.000000 
      6 C           2.133000   -0.990000   -0.689000 C.ar      1 <1>         0.000000 
      7 C           0.818000   -1.280000   -0.290000 C.ar      1 <1>         0.000000 
      8 C           0.406000   -2.615000   -0.197000 C.ar      1 <1>         0.000000 
      9 H          -0.627000   -2.853000    0.036000 H         1 <1>         0.000000 
     10 N          -0.068000   -0.302000    0.031000 N.pl3     1 <1>         0.000000 
     11 C          -0.842000   -0.333000    1.073000 C.ar      1 <1>         0.000000 
     12 H          -0.895000   -1.116000    1.830000 H         1 <1>         0.000000 
     13 N          -1.547000    0.702000    1.103000 N.ar      1 <1>         0.000000 
     14 C          -1.236000    1.544000   -0.018000 C.ar      1 <1>         0.000000 
     15 C          -0.294000    0.806000   -0.646000 C.ar      1 <1>         0.000000 
     16 C           0.458000    1.068000   -1.924000 C.3       1 <1>         0.000000 
     17 H           0.406000    0.264000   -2.675000 H         1 <1>         0.000000 
     18 N           1.793000    1.330000   -1.486000 N.am      1 <1>         0.000000 
     19 C           2.607000    0.434000   -0.895000 C.2       1 <1>         0.000000 
     20 O           3.730000    0.748000   -0.536000 O.2       1 <1>         0.000000 
     21 C           2.121000    2.690000   -1.800000 C.3       1 <1>         0.000000 
     22 H           2.124000    3.344000   -0.914000 H         1 <1>         0.000000 
     23 H           2.997000    2.806000   -2.458000 H         1 <1>         0.000000 
     24 C           0.739000    2.496000   -2.500000 C.3       1 <1>         0.000000 
     25 H          -0.009000    3.258000   -2.262000 H         1 <1>         0.000000 
     26 H           0.866000    2.453000   -3.595000 H         1 <1>         0.000000 
     27 C          -1.887000    2.843000   -0.237000 C.2       1 <1>         0.000000 
     28 O          -3.106000    2.846000   -0.290000 O.2       1 <1>         0.000000 
     29 O          -1.133000    3.948000   -0.329000 O.3       1 <1>         0.000000 
     30 C          -1.806000    5.215000   -0.525000 C.3       1 <1>         0.000000 
     31 C          -0.633000    6.234000   -0.605000 C.3       1 <1>         0.000000 
     32 H          -0.042000    6.207000    0.323000 H         1 <1>         0.000000 
     33 H           0.035000    5.980000   -1.443000 H         1 <1>         0.000000 
     34 H          -1.002000    7.261000   -0.753000 H         1 <1>         0.000000 
     35 C          -2.709000    5.596000    0.684000 C.3       1 <1>         0.000000 
     36 H          -3.046000    6.640000    0.594000 H         1 <1>         0.000000 
     37 H          -2.141000    5.492000    1.621000 H         1 <1>         0.000000 
     38 H          -3.606000    4.964000    0.753000 H         1 <1>         0.000000 
     39 C          -2.600000    5.276000   -1.864000 C.3       1 <1>         0.000000 
     40 H          -2.937000    6.306000   -2.058000 H         1 <1>         0.000000 
     41 H          -3.493000    4.635000   -1.852000 H         1 <1>         0.000000 
     42 H          -1.958000    4.957000   -2.698000 H         1 <1>         0.000000 
     43 F           3.505000   -4.356000   -0.919000 F         1 <1>         0.000000 
@<TRIPOS>BOND
     1    2    1 1    
     2    1    3 ar   
     3    3    4 ar   
     4    4    5 1    
     5    4    6 ar   
     6    6    7 ar   
     7    7    8 ar   
     8    8    9 1    
     9    8    1 ar   
    10    7   10 1    
    11   10   11 ar   
    12   11   12 1    
    13   11   13 ar   
    14   13   14 ar   
    15   14   15 ar   
    16   15   10 ar   
    17   15   16 1    
    18   16   17 1    
    19   16   18 1    
    20   18   19 am   
    21   19    6 1    
    22   19   20 2    
    23   18   21 1    
    24   21   22 1    
    25   21   23 1    
    26   21   24 1    
    27   24   25 1    
    28   24   26 1    
    29   24   16 1    
    30   14   27 1    
    31   27   28 2    
    32   27   29 1    
    33   29   30 1    
    34   30   31 1    
    35   31   32 1    
    36   31   33 1    
    37   31   34 1    
    38   30   35 1    
    39   35   36 1    
    40   35   37 1    
    41   35   38 1    
    42   30   39 1    
    43   39   40 1    
    44   39   41 1    
    45   39   42 1    
    46    3   43 1    
@<TRIPOS>SUBSTRUCTURE
     1 ****        2 TEMP              0 ****  ****    0 ROOT 
