@<TRIPOS>MOLECULE
GHSM.30.pdb
 76 80 0 0 0
SMALL
GASTEIGER

@<TRIPOS>ATOM
      1  C1        -0.9370    1.2130    1.8990 C.ar    1  BEN1       -0.0568
      2  C2         0.2160    1.9460    2.1950 C.ar    1  BEN1       -0.0614
      3  C3         0.2020    3.3390    2.0960 C.ar    1  BEN1       -0.0600
      4  C4        -0.9620    3.9970    1.6900 C.ar    1  BEN1       -0.0400
      5  C5        -2.1240    3.2690    1.4150 C.ar    1  BEN1        0.0398
      6  C6        -2.1120    1.8720    1.5220 C.ar    1  BEN1       -0.0259
      7  H1        -0.9120    0.1300    1.9650 H       1  BEN1        0.0621
      8  H2         1.1220    1.4320    2.5020 H       1  BEN1        0.0618
      9  H3         1.0960    3.9090    2.3300 H       1  BEN1        0.0618
     10  H4        -0.9560    5.0760    1.5820 H       1  BEN1        0.0636
     11 N11_       -3.3150    3.9420    1.0190 N.am    1  BEN1       -0.2653
     12 C12_       -3.3930    1.0850    1.2270 C.3     1  BEN1       -0.0238
     13 C13_       -3.6610    1.0630   -0.3000 C.3     1  BEN1       -0.0219
     14 C14_       -3.4780    2.4550   -0.9630 C.3     1  BEN1        0.1002
     15 C15_       -4.0140    3.5590   -0.0790 C.2     1  BEN1        0.2404
     16 O16_       -5.0720    4.0820   -0.3910 O.2     1  BEN1       -0.2732
     17 C17_       -3.8490    5.0180    1.8530 C.3     1  BEN1        0.0449
     18 H18_       -4.2290    1.5770    1.7490 H       1  BEN1        0.0314
     19 H19_       -3.3350    0.0550    1.6120 H       1  BEN1        0.0314
     20 H20_       -4.6940    0.7140   -0.4650 H       1  BEN1        0.0291
     21 H21_       -2.9810    0.3490   -0.7950 H       1  BEN1        0.0291
     22 N22_       -4.1700    2.4380   -2.2510 N.am    1  BEN1       -0.3025
     23 H23_       -2.4070    2.6750   -1.1070 H       1  BEN1        0.0595
     24  C1        -7.4920    4.2950    2.8130 C.ar    2  BEN2       -0.0537
     25  C2        -7.3230    3.2640    3.7420 C.ar    2  BEN2       -0.0170
     26  C3        -6.0390    2.9010    4.1570 C.ar    2  BEN2       -0.0537
     27  C4        -4.9220    3.5060    3.5740 C.ar    2  BEN2       -0.0565
     28  C5        -5.0850    4.4610    2.5660 C.ar    2  BEN2       -0.0297
     29  C6        -6.3730    4.8840    2.2180 C.ar    2  BEN2       -0.0565
     30  H1        -8.4890    4.6300    2.5460 H       2  BEN2        0.0624
     31  H3        -5.9080    2.1460    4.9260 H       2  BEN2        0.0624
     32  H4        -3.9270    3.2230    3.9020 H       2  BEN2        0.0621
     33 H34_       -4.0930    5.8960    1.2340 H       1  BEN1        0.0518
     34  H6        -6.5130    5.6660    1.4780 H       2  BEN2        0.0621
     35 H36_       -3.1420    5.3460    2.6310 H       1  BEN1        0.0518
     36  C1        -9.4640    3.2390    5.0060 C.ar    3  BEN3       -0.0532
     37  C2        -8.4980    2.5370    4.2790 C.ar    3  BEN3       -0.0026
     38  C3        -8.6300    1.1580    4.0740 C.ar    3  BEN3        0.0787
     39  C4        -9.6810    0.4750    4.6960 C.ar    3  BEN3       -0.0459
     40  C5       -10.6330    1.1700    5.4480 C.ar    3  BEN3       -0.0609
     41  C6       -10.5360    2.5560    5.5880 C.ar    3  BEN3       -0.0611
     42  H1        -9.3810    4.3150    5.1250 H       3  BEN3        0.0624
     43  H4        -9.7660   -0.6020    4.5910 H       3  BEN3        0.0626
     44  H5       -11.4500    0.6320    5.9210 H       3  BEN3        0.0618
     45  H6       -11.2880    3.1020    6.1500 H       3  BEN3        0.0618
     46  N1        -7.1020    0.8440    2.1280 N.ar    4  TET4       -0.0576
     47  N2        -6.3310   -0.1500    1.6450 N.ar    4  TET4        0.1370
     48  N3        -6.4730   -1.1940    2.4790 N.ar    4  TET4        0.0227
     49  N4        -7.3730   -0.8230    3.5110 N.ar    4  TET4       -0.0564
     50  C1        -7.6660    0.3760    3.2050 C.ar    4  TET4        0.3568
     51  H1        -7.2340    1.7680    1.6990 H       4  TET4        0.4932
     52 H52_       -5.1370    2.7020   -2.2700 H       1  BEN1        0.1495
     53 C53_       -3.5310    2.0350   -3.3700 C.2     1  BEN1        0.2333
     54 O54_       -2.3510    1.7250   -3.3640 O.2     1  BEN1       -0.2738
     55 C55_       -4.3300    1.9790   -4.6610 C.3     1  BEN1        0.0905
     56 C56_       -5.0650    0.6100   -4.6310 C.3     1  BEN1       -0.0385
     57 C57_       -3.3920    2.0750   -5.8960 C.3     1  BEN1       -0.0385
     58 N58_       -5.3060    3.1000   -4.6510 N.3     1  BEN1       -0.3011
     59 H59_       -4.3460   -0.2020   -4.4370 H       1  BEN1        0.0252
     60 H60_       -5.5650    0.3840   -5.5830 H       1  BEN1        0.0252
     61 H61_       -5.8190    0.6080   -3.8300 H       1  BEN1        0.0252
     62 H62_       -2.6570    1.2560   -5.8910 H       1  BEN1        0.0252
     63 H63_       -2.8530    3.0340   -5.8780 H       1  BEN1        0.0252
     64 H64_       -3.9680    2.0140   -6.8310 H       1  BEN1        0.0252
     65  C65       -6.2160    3.3110   -5.8030 C.3     1  BEN1        0.0226
     66 H66_       -4.8130    4.0330   -4.3960 H       1  BEN1        0.1230
     67  H67       -5.7370    3.9440   -6.5690 H       1  BEN1        0.0449
     68  C68       -7.5130    4.0030   -5.3050 C.3     1  BEN1        0.0649
     69  H69       -6.5070    2.3690   -6.2860 H       1  BEN1        0.0449
     70  C70       -8.2530    3.1200   -4.2660 C.3     1  BEN1       -0.0377
     71  H71       -7.2400    4.9600   -4.8290 H       1  BEN1        0.0603
     72  O72       -8.3820    4.3160   -6.4070 O.3     1  BEN1       -0.3908
     73  H73       -8.5220    2.1490   -4.7070 H       1  BEN1        0.0255
     74  H74       -9.1750    3.6260   -3.9390 H       1  BEN1        0.0255
     75  H75       -7.6180    2.9430   -3.3840 H       1  BEN1        0.0255
     76  H76       -8.6820    3.5450   -6.8770 H       1  BEN1        0.2098
@<TRIPOS>BOND
     1     1     2   ar
     2     1     6   ar
     3     1     7    1
     4     2     3   ar
     5     2     8    1
     6     3     4   ar
     7     3     9    1
     8     4     5   ar
     9     4    10    1
    10     5     6   ar
    11     5    11    1
    12     6    12    1
    13    11    15   am
    14    11    17    1
    15    12    13    1
    16    12    18    1
    17    12    19    1
    18    13    14    1
    19    13    20    1
    20    13    21    1
    21    14    15    1
    22    14    22    1
    23    14    23    1
    24    15    16    2
    25    17    28    1
    26    17    33    1
    27    17    35    1
    28    22    52    1
    29    22    53   am
    30    24    25   ar
    31    24    29   ar
    32    24    30    1
    33    25    26   ar
    34    25    37    1
    35    26    27   ar
    36    26    31    1
    37    27    28   ar
    38    27    32    1
    39    28    29   ar
    40    29    34    1
    41    36    37   ar
    42    36    41   ar
    43    36    42    1
    44    37    38   ar
    45    38    39   ar
    46    38    50    1
    47    39    40   ar
    48    39    43    1
    49    40    41   ar
    50    40    44    1
    51    41    45    1
    52    46    47   ar
    53    46    50   ar
    54    46    51    1
    55    47    48   ar
    56    48    49   ar
    57    49    50   ar
    58    53    54    2
    59    53    55    1
    60    55    56    1
    61    55    57    1
    62    55    58    1
    63    56    59    1
    64    56    60    1
    65    56    61    1
    66    57    62    1
    67    57    63    1
    68    57    64    1
    69    58    65    1
    70    58    66    1
    71    65    67    1
    72    65    68    1
    73    65    69    1
    74    68    70    1
    75    68    71    1
    76    68    72    1
    77    70    73    1
    78    70    74    1
    79    70    75    1
    80    72    76    1
