@<TRIPOS>MOLECULE
cpd_38
 46 49 0 0 0
SMALL
GASTEIGER
Energy = 0

@<TRIPOS>ATOM
      1 N1         -1.3997   -2.5943    3.0093 N.4     1  <0>1        0.3856
      2 C1         -0.4713   -2.4096    1.8469 C.3     1  <0>1       -0.0599
      3 C2         -1.7082   -4.0493    3.1982 C.3     1  <0>1       -0.0621
      4 C3         -0.1455   -0.9248    1.6309 C.3     1  <0>1        0.0780
      5 C4          0.7334   -0.7212    0.3900 C.3     1  <0>1        0.1139
      6 O1          1.1271    0.6526    0.3356 O.3     1  <0>1       -0.4895
      7 C5          1.9067    1.1028   -0.6960 C.ar    1  <0>1        0.1206
      8 C6          2.2648    2.4533   -0.6664 C.ar    1  <0>1       -0.0199
      9 C7          3.0606    3.0023   -1.6748 C.ar    1  <0>1       -0.0583
     10 C8          3.5066    2.2042   -2.7274 C.ar    1  <0>1       -0.0615
     11 C9          3.1535    0.8563   -2.7632 C.ar    1  <0>1       -0.0583
     12 C10         2.3588    0.3040   -1.7550 C.ar    1  <0>1       -0.0199
     13 H1          4.1231    2.6286   -3.5116 H       1  <0>1        0.0618
     14 H2          0.3698   -0.5124    2.5268 H       1  <0>1        0.0611
     15 O2         -1.3883   -0.2616    1.4037 O.3     1  <0>1       -0.3769
     16 C11        -2.2678   -0.3137    2.5187 C.3     1  <0>1        0.0334
     17 H3         -3.1813    0.2737    2.2846 H       1  <0>1        0.0541
     18 H4         -1.7913    0.1628    3.4033 H       1  <0>1        0.0541
     19 C12        -2.6342   -1.7730    2.8004 C.3     1  <0>1       -0.0660
     20 H5         -3.3015   -1.8120    3.6921 H       1  <0>1        0.0081
     21 H6         -3.2226   -2.1727    1.9430 H       1  <0>1        0.0081
     22 H7         -2.0874   -4.4557    2.2323 H       1  <0>1        0.0107
     23 H8         -0.7870   -4.6259    3.4465 H       1  <0>1        0.0107
     24 H9          3.3406    4.0672   -1.6494 H       1  <0>1        0.0619
     25 H10         3.5114    0.2325   -3.5981 H       1  <0>1        0.0619
     26 H11         2.0994   -0.7642   -1.8165 H       1  <0>1        0.0654
     27 H12         1.9166    3.0953    0.1612 H       1  <0>1        0.0654
     28 H13         0.1758   -1.0024   -0.5313 H       1  <0>1        0.0722
     29 H14         1.6386   -1.3638    0.4619 H       1  <0>1        0.0722
     30 H15         0.4757   -2.9712    2.0142 H       1  <0>1        0.0085
     31 H16        -0.9268   -2.8236    0.9175 H       1  <0>1        0.0085
     32 N2         -4.6185   -4.9117    5.2906 N.ar    1  <0>1       -0.3456
     33 C13        -2.7430   -4.2903    4.2633 C.ar    1  <0>1       -0.0373
     34 C14        -3.9948   -4.8398    4.0669 C.ar    1  <0>1        0.0055
     35 C15        -2.6249   -4.0619    5.6565 C.ar    1  <0>1        0.0200
     36 C16        -3.7966   -4.4324    6.2845 C.ar    1  <0>1        0.1383
     37 C17        -1.5648   -3.5692    6.4132 C.ar    1  <0>1       -0.0494
     38 N3         -4.0043   -4.3240    7.6109 N.ar    1  <0>1       -0.2375
     39 C18        -1.7602   -3.4570    7.7916 C.ar    1  <0>1       -0.0429
     40 C19        -2.9856   -3.8360    8.3506 C.ar    1  <0>1        0.0299
     41 H17        -4.4803   -5.1818    3.1424 H       1  <0>1        0.0810
     42 H18        -5.5919   -5.2868    5.4176 H       1  <0>1        0.1668
     43 H19        -0.5969   -3.2922    5.9711 H       1  <0>1        0.0625
     44 H20        -0.9571   -3.0774    8.4462 H       1  <0>1        0.0633
     45 H21        -3.1572   -3.7552    9.4382 H       1  <0>1        0.0830
     46 H22        -0.9400   -2.2626    3.8427 H       1  <0>1       -0.0811
@<TRIPOS>BOND
     1     1     2    1
     2     1     3    1
     3     1    19    1
     4     1    46    1
     5     2    31    1
     6     2    30    1
     7     2     4    1
     8     3    22    1
     9     3    23    1
    10     3    33    1
    11     4     5    1
    12     4    15    1
    13     4    14    1
    14     5    28    1
    15     5    29    1
    16     5     6    1
    17     6     7    1
    18     7    12   ar
    19     7     8   ar
    20     8     9   ar
    21     8    27    1
    22     9    10   ar
    23     9    24    1
    24    10    11   ar
    25    10    13    1
    26    11    25    1
    27    11    12   ar
    28    12    26    1
    29    15    16    1
    30    16    19    1
    31    16    17    1
    32    16    18    1
    33    19    21    1
    34    19    20    1
    35    32    34   ar
    36    32    42    1
    37    32    36   ar
    38    33    34   ar
    39    33    35   ar
    40    34    41    1
    41    35    36   ar
    42    35    37   ar
    43    36    38   ar
    44    37    43    1
    45    37    39   ar
    46    38    40   ar
    47    39    40   ar
    48    39    44    1
    49    40    45    1
