@<TRIPOS>MOLECULE
cpd_17
 47 50 0 0 0
SMALL
GASTEIGER
Energy = 0

@<TRIPOS>ATOM
      1 C1         -1.3501    0.4798    0.0080 C.ar    1  <0>1        0.0296
      2 C2         -2.4620    0.6312   -0.7290 C.ar    1  <0>1       -0.0407
      3 C3         -2.6575    1.8368   -1.2945 C.ar    1  <0>1       -0.0600
      4 C4         -1.7479    2.8715   -1.1093 C.ar    1  <0>1       -0.0616
      5 C5         -0.6270    2.6300   -0.3234 C.ar    1  <0>1       -0.0600
      6 C6         -0.4240    1.4247    0.2392 C.ar    1  <0>1       -0.0407
      7 N1         -1.1670   -0.7041    0.5952 N.pl3   1  <0>1       -0.3334
      8 C7          0.1982   -1.0644    0.9451 C.3     1  <0>1       -0.0027
      9 C8          0.3089   -2.5563    1.2477 C.3     1  <0>1       -0.0739
     10 N2         -0.7380   -2.9908    2.2279 N.4     1  <0>1        0.3854
     11 C9         -2.1105   -2.6971    1.6948 C.3     1  <0>1       -0.0739
     12 C10        -2.2838   -1.2120    1.3819 C.3     1  <0>1       -0.0027
     13 C11        -0.5827   -4.4495    2.5349 C.3     1  <0>1       -0.0472
     14 H1         -3.5640    1.9746   -1.9084 H       1  <0>1        0.0618
     15 H2         -3.1691   -0.1795   -0.8624 H       1  <0>1        0.0636
     16 H3          0.1260    3.4161   -0.1417 H       1  <0>1        0.0618
     17 H4          0.9093   -0.8213    0.1198 H       1  <0>1        0.0445
     18 H5          0.5396   -0.4927    1.8415 H       1  <0>1        0.0445
     19 H6          0.2004   -3.1284    0.2968 H       1  <0>1        0.0074
     20 H7          1.3316   -2.7772    1.6346 H       1  <0>1        0.0074
     21 H8         -2.2875   -3.2818    0.7630 H       1  <0>1        0.0074
     22 H9         -2.9028   -3.0065    2.4152 H       1  <0>1        0.0074
     23 H10        -3.2574   -1.0781    0.8586 H       1  <0>1        0.0445
     24 H11        -2.3627   -0.6488    2.3415 H       1  <0>1        0.0445
     25 H12         0.4596   -4.6738    2.8589 H       1  <0>1        0.0121
     26 H13        -0.7775   -5.0717    1.6328 H       1  <0>1        0.0121
     27 C12        -3.0960   -4.2791    6.8886 C.ar    1  <0>1        0.0172
     28 C13        -4.0441   -5.0416    7.5820 C.ar    1  <0>1       -0.0511
     29 C14        -2.5939   -3.1190    7.4956 C.ar    1  <0>1       -0.0511
     30 C15        -4.4789   -4.6583    8.8519 C.ar    1  <0>1       -0.0611
     31 C16        -3.0256   -2.7345    8.7657 C.ar    1  <0>1       -0.0611
     32 C17        -3.9682   -3.5039    9.4450 C.ar    1  <0>1       -0.0617
     33 H14        -4.4561   -5.9577    7.1264 H       1  <0>1        0.0625
     34 H15        -1.8513   -2.4951    6.9718 H       1  <0>1        0.0625
     35 H16        -5.2249   -5.2681    9.3881 H       1  <0>1        0.0618
     36 H17        -2.6244   -1.8189    9.2347 H       1  <0>1        0.0618
     37 H18        -4.3115   -3.2012   10.4493 H       1  <0>1        0.0618
     38 C18        -1.5133   -4.8501    3.6481 C.ar    1  <0>1        0.0192
     39 N3         -1.6177   -4.1881    4.8082 N.ar    1  <0>1       -0.3434
     40 N4         -3.1058   -5.7326    4.8095 N.ar    1  <0>1       -0.2359
     41 C19        -2.4363   -5.8098    3.6674 C.ar    1  <0>1        0.0472
     42 C20        -2.6352   -4.6945    5.5341 C.ar    1  <0>1        0.1383
     43 H19        -1.0184   -3.4156    5.0978 H       1  <0>1        0.1670
     44 H20        -2.6769   -6.5465    2.8867 H       1  <0>1        0.0847
     45 H21        -1.9084    3.8414   -1.5659 H       1  <0>1        0.0618
     46 H22         0.4480    1.2252    0.8515 H       1  <0>1        0.0636
     47 H23        -0.6118   -2.4707    3.0821 H       1  <0>1       -0.0812
@<TRIPOS>BOND
     1     1     2   ar
     2     5     6   ar
     3     9    10    1
     4    38    39   ar
     5     1     7    1
     6     1     6   ar
     7     2     3   ar
     8     3    14    1
     9     3     4   ar
    10     4     5   ar
    11     2    15    1
    12     5    16    1
    13     7    12    1
    14     7     8    1
    15     8     9    1
    16     8    17    1
    17     8    18    1
    18     9    19    1
    19     9    20    1
    20    10    13    1
    21    10    11    1
    22    10    47    1
    23    11    21    1
    24    11    22    1
    25    11    12    1
    26    12    23    1
    27    12    24    1
    28    13    26    1
    29    13    25    1
    30    13    38    1
    31    27    42    1
    32    27    28   ar
    33    27    29   ar
    34    28    33    1
    35    28    30   ar
    36    29    34    1
    37    29    31   ar
    38    30    35    1
    39    30    32   ar
    40    31    32   ar
    41    31    36    1
    42    32    37    1
    43    38    41   ar
    44    39    42   ar
    45    39    43    1
    46    40    41   ar
    47    40    42   ar
    48    41    44    1
    49     4    45    1
    50     6    46    1
