@<TRIPOS>MOLECULE
cpd_08
 41 43 0 0 0
SMALL
GASTEIGER
Energy = 0

@<TRIPOS>ATOM
      1 O1         -0.1754   -1.1129    0.4674 O.2     1  <0>1       -0.4932
      2 C1          3.1514    0.7958   -2.3846 C.ar    1  <0>1       -0.0534
      3 C2          3.8314    1.7925   -3.0848 C.ar    1  <0>1       -0.0611
      4 C3          3.6231    3.1326   -2.7671 C.ar    1  <0>1       -0.0607
      5 C4          2.7296    3.4702   -1.7510 C.ar    1  <0>1       -0.0474
      6 C5          2.0447    2.4737   -1.0506 C.ar    1  <0>1        0.0200
      7 C6          2.2452    1.1202   -1.3658 C.ar    1  <0>1       -0.0078
      8 S1          0.9517    2.9767    0.2470 S.3     1  <0>1       -0.0881
      9 C7          1.6045    0.0224   -0.6156 C.2     1  <0>1       -0.0111
     10 C8          0.3274   -0.0212   -0.1943 C.2     1  <0>1        0.1292
     11 C9         -0.6756    0.9548   -0.6686 C.ar    1  <0>1        0.0318
     12 C10        -0.4928    2.3374   -0.5397 C.ar    1  <0>1        0.0235
     13 C11        -1.4424    3.2281   -1.0477 C.ar    1  <0>1       -0.0459
     14 C12        -2.5859    2.7472   -1.6898 C.ar    1  <0>1       -0.0423
     15 C13        -2.7835    1.3734   -1.8064 C.ar    1  <0>1        0.0417
     16 C14        -1.8358    0.4852   -1.3000 C.ar    1  <0>1       -0.0317
     17 Cl1        -4.1957    0.7587   -2.5737 Cl      1  <0>1       -0.0835
     18 C15         0.6680   -2.0445    1.1320 C.3     1  <0>1        0.0750
     19 C16        -0.1827   -3.1968    1.6772 C.3     1  <0>1       -0.0562
     20 C17        -2.2434   -1.9220    2.2593 C.3     1  <0>1       -0.1034
     21 N1         -1.1808   -2.8543    2.7456 N.4     1  <0>1        0.3781
     22 C18        -1.8230   -4.1092    3.2462 C.3     1  <0>1       -0.1034
     23 H1         -0.6912   -2.4096    3.5063 H       1  <0>1       -0.0825
     24 H2          3.3365   -0.2606   -2.6423 H       1  <0>1        0.0624
     25 H3          4.5399    1.5213   -3.8866 H       1  <0>1        0.0618
     26 H4          4.1634    3.9232   -3.3162 H       1  <0>1        0.0618
     27 H5          2.5702    4.5315   -1.4964 H       1  <0>1        0.0629
     28 H6          2.2678   -0.8294   -0.4009 H       1  <0>1        0.0660
     29 H7         -1.2842    4.3159   -0.9495 H       1  <0>1        0.0629
     30 H8         -3.3321    3.4520   -2.0943 H       1  <0>1        0.0632
     31 H9         -1.9955   -0.5977   -1.4245 H       1  <0>1        0.0639
     32 H10         1.4099   -2.4700    0.4226 H       1  <0>1        0.0677
     33 H11         1.2198   -1.5392    1.9542 H       1  <0>1        0.0677
     34 H12        -0.7031   -3.6848    0.8198 H       1  <0>1        0.0091
     35 H13         0.5224   -3.9648    2.0762 H       1  <0>1        0.0091
     36 H14        -3.0366   -1.7856    3.0283 H       1  <0>1        0.0023
     37 H15        -1.8471   -0.9068    2.0436 H       1  <0>1        0.0023
     38 H16        -2.7373   -2.3048    1.3384 H       1  <0>1        0.0023
     39 H17        -2.5432   -3.8979    4.0684 H       1  <0>1        0.0023
     40 H18        -2.3810   -4.6333    2.4381 H       1  <0>1        0.0023
     41 H19        -1.0676   -4.8207    3.6491 H       1  <0>1        0.0023
@<TRIPOS>BOND
     1     1    18    1
     2     1    10    1
     3     2     3   ar
     4     2     7   ar
     5     2    24    1
     6     3     4   ar
     7     3    25    1
     8     4     5   ar
     9     4    26    1
    10     5     6   ar
    11     5    27    1
    12     6     7   ar
    13     6     8    1
    14     7     9    1
    15     8    12    1
    16     9    10    2
    17     9    28    1
    18    10    11    1
    19    11    12   ar
    20    11    16   ar
    21    12    13   ar
    22    13    14   ar
    23    13    29    1
    24    14    15   ar
    25    14    30    1
    26    15    16   ar
    27    15    17    1
    28    16    31    1
    29    18    19    1
    30    18    32    1
    31    18    33    1
    32    19    21    1
    33    19    34    1
    34    19    35    1
    35    20    21    1
    36    20    36    1
    37    20    37    1
    38    20    38    1
    39    21    23    1
    40    21    22    1
    41    22    39    1
    42    22    40    1
    43    22    41    1
