@<TRIPOS>MOLECULE
27
 78 81 0 0 0
SMALL
GASTEIGER

@<TRIPOS>ATOM
      1 C1         -3.9920    1.4260   -1.5003 C.3     1  BENZYL111    0.0140
      2 C2         -4.4197    2.6734   -0.6958 C.ar    1  BENZYL111   -0.0398
      3 C3         -5.7599    3.0730   -0.7829 C.ar    1  BENZYL111   -0.0580
      4 C4         -6.2385    4.1617   -0.0487 C.ar    1  BENZYL111   -0.0615
      5 C5         -5.3708    4.8820    0.7749 C.ar    1  BENZYL111   -0.0617
      6 C6         -4.0251    4.5150    0.8457 C.ar    1  BENZYL111   -0.0615
      7 C7         -3.5506    3.4276    0.1056 C.ar    1  BENZYL111   -0.0580
      8 C          -4.9819    0.2624   -1.3080 C.ar    2  PHENYL222   -0.0398
      9 C          -5.6107    0.0465   -0.0752 C.ar    2  PHENYL222   -0.0580
     10 C          -6.5124   -1.0093    0.0858 C.ar    2  PHENYL222   -0.0615
     11 C          -6.7906   -1.8622   -0.9854 C.ar    2  PHENYL222   -0.0617
     12 C          -6.1632   -1.6565   -2.2168 C.ar    2  PHENYL222   -0.0615
     13 C          -5.2619   -0.5998   -2.3749 C.ar    2  PHENYL222   -0.0580
     14 C14        -2.5517    0.8844   -1.2617 C.3     1  BENZYL111   -0.0017
     15 C15        -2.3566    0.2531    0.1462 C.3     1  BENZYL111   -0.0310
     16 N16        -0.9171    0.1437    0.5060 N.4     3  CYCLOHEXYL333    0.2353
     17 C2         -0.1541   -0.8583   -0.2806 C.3     3  CYCLOHEXYL333   -0.0302
     18 C3          1.3649   -0.7451    0.0036 C.3     3  CYCLOHEXYL333    0.0063
     19 C4          1.6555   -0.9025    1.5162 C.3     3  CYCLOHEXYL333    0.0353
     20 C5          0.8290    0.1623    2.2834 C.3     3  CYCLOHEXYL333    0.0063
     21 C6         -0.6797    0.0083    1.9659 C.3     3  CYCLOHEXYL333   -0.0302
     22 N22         3.1114   -0.8246    1.7208 N.am    3  CYCLOHEXYL333   -0.3008
     23 C23         3.7638    0.4408    2.0841 C.3     3  CYCLOHEXYL333    0.0035
     24 S           7.8098    1.5074   -2.7908 S.O2    5  SULFONAMIDE555    0.0604
     25 C25         3.8375   -1.9549    1.4777 C.2     3  CYCLOHEXYL333    0.2199
     26 O26         3.2854   -2.9966    1.1608 O.2     3  CYCLOHEXYL333   -0.2752
     27 C27         5.3449   -2.0245    1.5555 C.3     3  CYCLOHEXYL333    0.0493
     28 C           5.9924   -1.1643    0.4603 C.ar    4  PHENYL444   -0.0385
     29 C           7.1241   -0.3881    0.7356 C.ar    4  PHENYL444   -0.0563
     30 C           7.6818    0.4228   -0.2572 C.ar    4  PHENYL444   -0.0351
     31 C           7.1095    0.4690   -1.5312 C.ar    4  PHENYL444    0.1055
     32 C           6.0023   -0.3325   -1.8199 C.ar    4  PHENYL444   -0.0351
     33 C           5.4494   -1.1491   -0.8297 C.ar    4  PHENYL444   -0.0563
     34 O           9.0571    0.9113   -3.2278 O.2     5  SULFONAMIDE555   -0.1529
     35 O           6.7855    1.8196   -3.7679 O.2     5  SULFONAMIDE555   -0.1529
     36 N           8.1318    2.8723   -1.9389 N.3     5  SULFONAMIDE555   -0.1827
     37 C37         7.0474    3.5633   -1.2494 C.3     5  SULFONAMIDE555    0.0086
     38 C38         9.4998    3.3764   -1.9266 C.3     5  SULFONAMIDE555    0.0086
     39 H          -3.9985    1.7977   -2.5036 H       1  BENZYL111    0.0399
     40 H          -6.4046    2.5545   -1.3998 H       1  BENZYL111    0.0620
     41 H          -7.2320    4.4330   -0.1152 H       1  BENZYL111    0.0618
     42 H          -5.7215    5.6800    1.3274 H       1  BENZYL111    0.0618
     43 H          -3.3780    5.0487    1.4469 H       1  BENZYL111    0.0618
     44 H          -2.5503    3.1775    0.1496 H       1  BENZYL111    0.0620
     45 H          -5.4067    0.6716    0.7202 H       2  PHENYL222    0.0620
     46 H          -6.9732   -1.1591    0.9970 H       2  PHENYL222    0.0618
     47 H          -7.4571   -2.6413   -0.8675 H       2  PHENYL222    0.0618
     48 H          -6.3653   -2.2850   -3.0100 H       2  PHENYL222    0.0618
     49 H          -4.7990   -0.4540   -3.2857 H       2  PHENYL222    0.0620
     50 H          -1.8437    1.6743   -1.4018 H       1  BENZYL111    0.0326
     51 H          -2.3934    0.1030   -1.9753 H       1  BENZYL111    0.0326
     52 H          -2.8137   -0.7138    0.1776 H       1  BENZYL111    0.0815
     53 H          -2.8244    0.8972    0.8612 H       1  BENZYL111    0.0815
     54 H          -0.5335    1.0476    0.2301 H       3  CYCLOHEXYL333    0.2033
     55 H          -0.3420   -0.7237   -1.3253 H       3  CYCLOHEXYL333    0.0815
     56 H          -0.4790   -1.8344    0.0135 H       3  CYCLOHEXYL333    0.0815
     57 H           1.8978   -1.4889   -0.5511 H       3  CYCLOHEXYL333    0.0335
     58 H           1.6937    0.2257   -0.3035 H       3  CYCLOHEXYL333    0.0335
     59 H           1.3524   -1.8526    1.9040 H       3  CYCLOHEXYL333    0.0504
     60 H           0.9945    0.0675    3.3363 H       3  CYCLOHEXYL333    0.0335
     61 H           1.1469    1.1339    1.9674 H       3  CYCLOHEXYL333    0.0335
     62 H          -1.0327   -0.9416    2.3094 H       3  CYCLOHEXYL333    0.0815
     63 H          -1.2169    0.7822    2.4732 H       3  CYCLOHEXYL333    0.0815
     64 H           3.0207    1.1966    2.2306 H       3  CYCLOHEXYL333    0.0429
     65 H           4.4484    0.7381    1.3174 H       3  CYCLOHEXYL333    0.0429
     66 H           4.3120    0.3056    2.9930 H       3  CYCLOHEXYL333    0.0429
     67 H           5.6695   -3.0399    1.4630 H       3  CYCLOHEXYL333    0.0407
     68 H           5.6497   -1.6413    2.5069 H       3  CYCLOHEXYL333    0.0407
     69 H           7.5488   -0.4145    1.6758 H       4  PHENYL444    0.0621
     70 H           8.5189    0.9892   -0.0486 H       4  PHENYL444    0.0637
     71 H           5.5917   -0.3215   -2.7666 H       4  PHENYL444    0.0637
     72 H           4.6360   -1.7444   -1.0509 H       4  PHENYL444    0.0621
     73 H           6.1343    3.0231   -1.3883 H       5  SULFONAMIDE555    0.0408
     74 H           6.9478    4.5613   -1.6223 H       5  SULFONAMIDE555    0.0408
     75 H           7.2708    3.6137   -0.2042 H       5  SULFONAMIDE555    0.0408
     76 H          10.1278    2.7190   -2.4908 H       5  SULFONAMIDE555    0.0408
     77 H           9.8561    3.4564   -0.9208 H       5  SULFONAMIDE555    0.0408
     78 H           9.5201    4.3496   -2.3709 H       5  SULFONAMIDE555    0.0408
@<TRIPOS>BOND
     1     1     2    1
     2     2     3   ar
     3     2     7   ar
     4     7     6   ar
     5     6     5   ar
     6     5     4   ar
     7     4     3   ar
     8     8     9   ar
     9     8    13   ar
    10    13    12   ar
    11    12    11   ar
    12    11    10   ar
    13    10     9   ar
    14     1     8    1
    15     1    14    1
    16    14    15    1
    17    16    17    1
    18    16    21    1
    19    21    20    1
    20    20    19    1
    21    19    18    1
    22    18    17    1
    23    15    16    1
    24    19    22    1
    25    22    23    1
    26    24    34    2
    27    22    25   am
    28    25    26    2
    29    25    27    1
    30    28    29   ar
    31    28    33   ar
    32    33    32   ar
    33    32    31   ar
    34    31    30   ar
    35    30    29   ar
    36    27    28    1
    37    24    35    2
    38    24    36    1
    39    31    24    1
    40    36    37    1
    41    36    38    1
    42     1    39    1
    43     3    40    1
    44     4    41    1
    45     5    42    1
    46     6    43    1
    47     7    44    1
    48     9    45    1
    49    10    46    1
    50    11    47    1
    51    12    48    1
    52    13    49    1
    53    14    50    1
    54    14    51    1
    55    15    52    1
    56    15    53    1
    57    16    54    1
    58    17    55    1
    59    17    56    1
    60    18    57    1
    61    18    58    1
    62    19    59    1
    63    20    60    1
    64    20    61    1
    65    21    62    1
    66    21    63    1
    67    23    64    1
    68    23    65    1
    69    23    66    1
    70    27    67    1
    71    27    68    1
    72    29    69    1
    73    30    70    1
    74    32    71    1
    75    33    72    1
    76    37    73    1
    77    37    74    1
    78    37    75    1
    79    38    76    1
    80    38    77    1
    81    38    78    1
