@<TRIPOS>MOLECULE
CCR5_23
 71 74 0 0 0
SMALL
GASTEIGER

@<TRIPOS>ATOM
      1 C1         -3.9992    1.4425   -1.5079 C.3     1  BENZYL1111    0.0140
      2 C2         -4.4490    2.6818   -0.7027 C.ar    1  BENZYL1111   -0.0398
      3 C3         -5.8014    3.0432   -0.7671 C.ar    1  BENZYL1111   -0.0580
      4 C4         -6.2986    4.1172   -0.0237 C.ar    1  BENZYL1111   -0.0615
      5 C5         -5.4379    4.8633    0.7840 C.ar    1  BENZYL1111   -0.0617
      6 C6         -4.0804    4.5378    0.8281 C.ar    1  BENZYL1111   -0.0615
      7 C7         -3.5876    3.4648    0.0791 C.ar    1  BENZYL1111   -0.0580
      8 C          -4.9661    0.2603   -1.3098 C.ar    2  PHENYL2222   -0.0398
      9 C          -5.5773    0.0283   -0.0712 C.ar    2  PHENYL2222   -0.0580
     10 C          -6.4597   -1.0429    0.0952 C.ar    2  PHENYL2222   -0.0615
     11 C          -6.7362   -1.8954   -0.9767 C.ar    2  PHENYL2222   -0.0617
     12 C          -6.1257   -1.6743   -2.2139 C.ar    2  PHENYL2222   -0.0615
     13 C          -5.2432   -0.6025   -2.3771 C.ar    2  PHENYL2222   -0.0580
     14 C14        -2.5479    0.9286   -1.2723 C.3     1  BENZYL1111   -0.0017
     15 C15        -2.3341    0.3182    0.1418 C.3     1  BENZYL1111   -0.0310
     16 N16        -0.8901    0.2208    0.4887 N.4     3  CYCLOHEXYL3333    0.2353
     17 C2         -0.1380   -0.8051   -0.2781 C.3     3  CYCLOHEXYL3333   -0.0302
     18 C3          1.3835   -0.7305    0.0118 C.3     3  CYCLOHEXYL3333    0.0063
     19 C4          1.6605   -0.8648    1.5297 C.3     3  CYCLOHEXYL3333    0.0353
     20 C5          0.8707    0.2585    2.2507 C.3     3  CYCLOHEXYL3333    0.0063
     21 C6         -0.6437    0.1297    1.9505 C.3     3  CYCLOHEXYL3333   -0.0302
     22 N22         3.1183   -0.8937    1.7464 N.am    3  CYCLOHEXYL3333   -0.3008
     23 C23         3.8947    0.3055    2.0906 C.3     3  CYCLOHEXYL3333    0.0035
     24 O1          7.8362    1.4849   -1.9779 O.3     5  OH5555     -0.4057
     25 C25         3.7604   -2.0692    1.4822 C.2     3  CYCLOHEXYL3333    0.2199
     26 O26         3.1386   -3.0717    1.1679 O.2     3  CYCLOHEXYL3333   -0.2752
     27 C27         5.2622   -2.2292    1.5445 C.3     3  CYCLOHEXYL3333    0.0493
     28 C           5.9732   -1.2468    0.6039 C.ar    4  PHENYL4444   -0.0384
     29 C           7.0765   -0.5036    1.0400 C.ar    4  PHENYL4444   -0.0547
     30 C           7.6977    0.4056    0.1788 C.ar    4  PHENYL4444   -0.0194
     31 C           7.2232    0.5717   -1.1245 C.ar    4  PHENYL4444    0.1300
     32 C           6.1342   -0.1811   -1.5702 C.ar    4  PHENYL4444   -0.0194
     33 C           5.5121   -1.0884   -0.7081 C.ar    4  PHENYL4444   -0.0547
     34 C34         7.2286    2.7810   -1.9075 C.3     5  OH5555      0.5752
     35 F35         7.8827    3.6129   -2.7607 F       5  OH5555     -0.1328
     36 F36         5.9189    2.7087   -2.2703 F       5  OH5555     -0.1328
     37 F37         7.3211    3.2752   -0.6428 F       5  OH5555     -0.1328
     38 H          -4.0152    1.8126   -2.5117 H       1  BENZYL1111    0.0399
     39 H          -6.4412    2.5071   -1.3739 H       1  BENZYL1111    0.0620
     40 H          -7.3008    4.3586   -0.0717 H       1  BENZYL1111    0.0618
     41 H          -5.8022    5.6496    1.3444 H       1  BENZYL1111    0.0618
     42 H          -3.4382    5.0917    1.4161 H       1  BENZYL1111    0.0618
     43 H          -2.5791    3.2468    0.1019 H       1  BENZYL1111    0.0620
     44 H          -5.3746    0.6531    0.7248 H       2  PHENYL2222    0.0620
     45 H          -6.9075   -1.2043    1.0109 H       2  PHENYL2222    0.0618
     46 H          -7.3889   -2.6855   -0.8551 H       2  PHENYL2222    0.0618
     47 H          -6.3264   -2.3026   -3.0076 H       2  PHENYL2222    0.0618
     48 H          -4.7921   -0.4459   -3.2920 H       2  PHENYL2222    0.0620
     49 H          -1.8545    1.7288   -1.4263 H       1  BENZYL1111    0.0326
     50 H          -2.3800    0.1417   -1.9776 H       1  BENZYL1111    0.0326
     51 H          -2.7859   -0.6504    0.1916 H       1  BENZYL1111    0.0815
     52 H          -2.7972    0.9705    0.8523 H       1  BENZYL1111    0.0815
     53 H          -0.5026    1.1135    0.1833 H       3  CYCLOHEXYL3333    0.2033
     54 H          -0.3157   -0.6795   -1.3257 H       3  CYCLOHEXYL3333    0.0815
     55 H          -0.4854   -1.7684    0.0323 H       3  CYCLOHEXYL3333    0.0815
     56 H           1.8969   -1.5013   -0.5241 H       3  CYCLOHEXYL3333    0.0335
     57 H           1.7431    0.2231   -0.3141 H       3  CYCLOHEXYL3333    0.0335
     58 H           1.3118   -1.7820    1.9564 H       3  CYCLOHEXYL3333    0.0504
     59 H           1.0420    0.2097    3.3058 H       3  CYCLOHEXYL3333    0.0335
     60 H           1.2126    1.2051    1.8874 H       3  CYCLOHEXYL3333    0.0335
     61 H          -1.0160   -0.7993    2.3291 H       3  CYCLOHEXYL3333    0.0815
     62 H          -1.1583    0.9329    2.4351 H       3  CYCLOHEXYL3333    0.0815
     63 H           3.2286    1.1249    2.2634 H       3  CYCLOHEXYL3333    0.0429
     64 H           4.5779    0.5434    1.3022 H       3  CYCLOHEXYL3333    0.0429
     65 H           4.4579    0.1164    2.9805 H       3  CYCLOHEXYL3333    0.0429
     66 H           5.5321   -3.2337    1.2934 H       3  CYCLOHEXYL3333    0.0407
     67 H           5.5750   -2.0122    2.5445 H       3  CYCLOHEXYL3333    0.0407
     68 H           7.4325   -0.6274    2.0007 H       4  PHENYL4444    0.0622
     69 H           8.5078    0.9547    0.5063 H       4  PHENYL4444    0.0654
     70 H           5.7890   -0.0673   -2.5361 H       4  PHENYL4444    0.0654
     71 H           4.7087   -1.6443   -1.0406 H       4  PHENYL4444    0.0622
@<TRIPOS>BOND
     1     1     2    1
     2     2     3   ar
     3     2     7   ar
     4     7     6   ar
     5     6     5   ar
     6     5     4   ar
     7     4     3   ar
     8     8     9   ar
     9     8    13   ar
    10    13    12   ar
    11    12    11   ar
    12    11    10   ar
    13    10     9   ar
    14     1     8    1
    15     1    14    1
    16    14    15    1
    17    16    17    1
    18    16    21    1
    19    21    20    1
    20    20    19    1
    21    19    18    1
    22    18    17    1
    23    15    16    1
    24    19    22    1
    25    22    23    1
    26    24    34    1
    27    22    25   am
    28    25    26    2
    29    25    27    1
    30    28    29   ar
    31    28    33   ar
    32    33    32   ar
    33    32    31   ar
    34    31    30   ar
    35    30    29   ar
    36    27    28    1
    37    31    24    1
    38    34    35    1
    39    34    36    1
    40    34    37    1
    41     1    38    1
    42     3    39    1
    43     4    40    1
    44     5    41    1
    45     6    42    1
    46     7    43    1
    47     9    44    1
    48    10    45    1
    49    11    46    1
    50    12    47    1
    51    13    48    1
    52    14    49    1
    53    14    50    1
    54    15    51    1
    55    15    52    1
    56    16    53    1
    57    17    54    1
    58    17    55    1
    59    18    56    1
    60    18    57    1
    61    19    58    1
    62    20    59    1
    63    20    60    1
    64    21    61    1
    65    21    62    1
    66    23    63    1
    67    23    64    1
    68    23    65    1
    69    27    66    1
    70    27    67    1
    71    29    68    1
    72    30    69    1
    73    32    70    1
    74    33    71    1
