@<TRIPOS>MOLECULE
CCR5_09
 67 70 0 0 0
SMALL
GASTEIGER

@<TRIPOS>ATOM
      1 C1         -3.9950    1.4305   -1.5050 C.3     1  BENZYL1111    0.0140
      2 C2         -4.4344    2.6776   -0.7063 C.ar    1  BENZYL1111   -0.0398
      3 C3         -5.7814    3.0563   -0.7822 C.ar    1  BENZYL1111   -0.0580
      4 C4         -6.2696    4.1409   -0.0485 C.ar    1  BENZYL1111   -0.0615
      5 C5         -5.4049    4.8798    0.7617 C.ar    1  BENZYL1111   -0.0617
      6 C6         -4.0526    4.5353    0.8190 C.ar    1  BENZYL1111   -0.0615
      7 C7         -3.5687    3.4514    0.0800 C.ar    1  BENZYL1111   -0.0580
      8 C          -4.9738    0.2585   -1.3063 C.ar    2  PHENYL2222   -0.0398
      9 C          -5.5936    0.0385   -0.0697 C.ar    2  PHENYL2222   -0.0580
     10 C          -6.4855   -1.0246    0.0976 C.ar    2  PHENYL2222   -0.0615
     11 C          -6.7630   -1.8807   -0.9712 C.ar    2  PHENYL2222   -0.0617
     12 C          -6.1445   -1.6710   -2.2064 C.ar    2  PHENYL2222   -0.0615
     13 C          -5.2527   -0.6072   -2.3707 C.ar    2  PHENYL2222   -0.0580
     14 C14        -2.5496    0.9032   -1.2638 C.3     1  BENZYL1111   -0.0017
     15 C15        -2.3466    0.2900    0.1508 C.3     1  BENZYL1111   -0.0310
     16 N16        -0.9060    0.1870    0.5089 N.4     3  CYCLOHEXYL3333    0.2353
     17 C2         -0.1406   -0.8147   -0.2755 C.3     3  CYCLOHEXYL3333   -0.0302
     18 C3          1.3779   -0.7214    0.0223 C.3     3  CYCLOHEXYL3333    0.0063
     19 C4          1.6566   -0.8866    1.5373 C.3     3  CYCLOHEXYL3333    0.0353
     20 C5          0.8382    0.1972    2.2865 C.3     3  CYCLOHEXYL3333    0.0063
     21 C6         -0.6714    0.0534    1.9693 C.3     3  CYCLOHEXYL3333   -0.0302
     22 N22         3.1150   -0.8677    1.7498 N.am    3  CYCLOHEXYL3333   -0.3008
     23 C23         3.8387    0.3494    2.1442 C.3     3  CYCLOHEXYL3333    0.0035
     24 Cl24        7.8340   -0.5323    2.4573 Cl      4  PHENYL4444   -0.0832
     25 C25         3.8014   -2.0041    1.4317 C.2     3  CYCLOHEXYL3333    0.2199
     26 O26         3.2170   -3.0207    1.0926 O.2     3  CYCLOHEXYL3333   -0.2752
     27 C27         5.3094   -2.0988    1.4557 C.3     3  CYCLOHEXYL3333    0.0507
     28 C           5.9434   -1.0546    0.5227 C.ar    4  PHENYL4444   -0.0202
     29 C           7.0570   -0.2933    0.9039 C.ar    4  PHENYL4444    0.0460
     30 C           7.5718    0.6787    0.0411 C.ar    4  PHENYL4444   -0.0248
     31 C           6.9923    0.8892   -1.2120 C.ar    4  PHENYL4444    0.0424
     32 C           5.8996    0.1152   -1.6079 C.ar    4  PHENYL4444   -0.0430
     33 C           5.3861   -0.8583   -0.7470 C.ar    4  PHENYL4444   -0.0554
     34 Cl34        7.6339    2.1172   -2.2837 Cl      4  PHENYL4444   -0.0835
     35 H          -4.0050    1.7974   -2.5101 H       1  BENZYL1111    0.0399
     36 H          -6.4240    2.5251   -1.3904 H       1  BENZYL1111    0.0620
     37 H          -7.2681    4.3955   -0.1054 H       1  BENZYL1111    0.0618
     38 H          -5.7625    5.6747    1.3142 H       1  BENZYL1111    0.0618
     39 H          -3.4076    5.0833    1.4095 H       1  BENZYL1111    0.0618
     40 H          -2.5639    3.2184    0.1136 H       1  BENZYL1111    0.0620
     41 H          -5.3902    0.6661    0.7239 H       2  PHENYL2222    0.0620
     42 H          -6.9396   -1.1774    1.0116 H       2  PHENYL2222    0.0618
     43 H          -7.4224   -2.6651   -0.8487 H       2  PHENYL2222    0.0618
     44 H          -6.3462   -2.3018   -2.9979 H       2  PHENYL2222    0.0618
     45 H          -4.7961   -0.4587   -3.2842 H       2  PHENYL2222    0.0620
     46 H          -1.8483    1.6971   -1.4147 H       1  BENZYL1111    0.0326
     47 H          -2.3864    0.1150   -1.9688 H       1  BENZYL1111    0.0326
     48 H          -2.8021   -0.6772    0.1961 H       1  BENZYL1111    0.0815
     49 H          -2.8119    0.9437    0.8586 H       1  BENZYL1111    0.0815
     50 H          -0.5232    1.0905    0.2304 H       3  CYCLOHEXYL3333    0.2033
     51 H          -0.3169   -0.6716   -1.3211 H       3  CYCLOHEXYL3333    0.0815
     52 H          -0.4763   -1.7890    0.0126 H       3  CYCLOHEXYL3333    0.0815
     53 H           1.9059   -1.4699   -0.5307 H       3  CYCLOHEXYL3333    0.0335
     54 H           1.7200    0.2468   -0.2783 H       3  CYCLOHEXYL3333    0.0335
     55 H           1.3335   -1.8242    1.9391 H       3  CYCLOHEXYL3333    0.0504
     56 H           1.0012    0.1170    3.3410 H       3  CYCLOHEXYL3333    0.0335
     57 H           1.1655    1.1606    1.9555 H       3  CYCLOHEXYL3333    0.0335
     58 H          -1.0315   -0.8931    2.3148 H       3  CYCLOHEXYL3333    0.0815
     59 H          -1.2037    0.8319    2.4748 H       3  CYCLOHEXYL3333    0.0815
     60 H           3.1374    1.1297    2.3542 H       3  CYCLOHEXYL3333    0.0429
     61 H           4.5071    0.6518    1.3653 H       3  CYCLOHEXYL3333    0.0429
     62 H           4.4137    0.1473    3.0236 H       3  CYCLOHEXYL3333    0.0429
     63 H           5.6186   -3.0819    1.1679 H       3  CYCLOHEXYL3333    0.0407
     64 H           5.6411   -1.9010    2.4536 H       3  CYCLOHEXYL3333    0.0407
     65 H           8.3848    1.2440    0.3318 H       4  PHENYL4444    0.0647
     66 H           5.4717    0.2620   -2.5354 H       4  PHENYL4444    0.0632
     67 H           4.5882   -1.4385   -1.0499 H       4  PHENYL4444    0.0621
@<TRIPOS>BOND
     1     1     2    1
     2     2     3   ar
     3     2     7   ar
     4     7     6   ar
     5     6     5   ar
     6     5     4   ar
     7     4     3   ar
     8     8     9   ar
     9     8    13   ar
    10    13    12   ar
    11    12    11   ar
    12    11    10   ar
    13    10     9   ar
    14     1     8    1
    15     1    14    1
    16    14    15    1
    17    16    17    1
    18    16    21    1
    19    21    20    1
    20    20    19    1
    21    19    18    1
    22    18    17    1
    23    15    16    1
    24    19    22    1
    25    22    23    1
    26    29    24    1
    27    22    25   am
    28    25    26    2
    29    25    27    1
    30    29    28   ar
    31    28    33   ar
    32    33    32   ar
    33    32    31   ar
    34    31    30   ar
    35    30    29   ar
    36    27    28    1
    37    31    34    1
    38     1    35    1
    39     3    36    1
    40     4    37    1
    41     5    38    1
    42     6    39    1
    43     7    40    1
    44     9    41    1
    45    10    42    1
    46    11    43    1
    47    12    44    1
    48    13    45    1
    49    14    46    1
    50    14    47    1
    51    15    48    1
    52    15    49    1
    53    16    50    1
    54    17    51    1
    55    17    52    1
    56    18    53    1
    57    18    54    1
    58    19    55    1
    59    20    56    1
    60    20    57    1
    61    21    58    1
    62    21    59    1
    63    23    60    1
    64    23    61    1
    65    23    62    1
    66    27    63    1
    67    27    64    1
    68    30    65    1
    69    32    66    1
    70    33    67    1
