@<TRIPOS>MOLECULE
CCR5_17
 75 78 0 0 0
SMALL
GASTEIGER

@<TRIPOS>ATOM
      1 C1         -3.9984    1.4308   -1.5055 C.3     1  BENZYL1111    0.0140
      2 C2         -4.4356    2.6807   -0.7103 C.ar    1  BENZYL1111   -0.0398
      3 C3         -5.7813    3.0631   -0.7911 C.ar    1  BENZYL1111   -0.0580
      4 C4         -6.2679    4.1524   -0.0630 C.ar    1  BENZYL1111   -0.0615
      5 C5         -5.4031    4.8910    0.7473 C.ar    1  BENZYL1111   -0.0617
      6 C6         -4.0524    4.5415    0.8107 C.ar    1  BENZYL1111   -0.0615
      7 C7         -3.5699    3.4535    0.0769 C.ar    1  BENZYL1111   -0.0580
      8 C          -4.9757    0.2591   -1.2974 C.ar    2  PHENYL2222   -0.0398
      9 C          -5.5934    0.0467   -0.0585 C.ar    2  PHENYL2222   -0.0580
     10 C          -6.4851   -1.0154    0.1168 C.ar    2  PHENYL2222   -0.0615
     11 C          -6.7639   -1.8783   -0.9461 C.ar    2  PHENYL2222   -0.0617
     12 C          -6.1468   -1.6768   -2.1834 C.ar    2  PHENYL2222   -0.0615
     13 C          -5.2555   -0.6138   -2.3557 C.ar    2  PHENYL2222   -0.0580
     14 C14        -2.5509    0.9068   -1.2701 C.3     1  BENZYL1111   -0.0017
     15 C15        -2.3408    0.2914    0.1426 C.3     1  BENZYL1111   -0.0310
     16 N16        -0.9004    0.1885    0.5024 N.4     3  CYCLOHEXYL3333    0.2353
     17 C2         -0.1224   -0.7745   -0.3178 C.3     3  CYCLOHEXYL3333   -0.0302
     18 C3          1.3919   -0.6808   -0.0022 C.3     3  CYCLOHEXYL3333    0.0063
     19 C4          1.6552   -0.9146    1.5048 C.3     3  CYCLOHEXYL3333    0.0353
     20 C5          0.8262    0.1231    2.3053 C.3     3  CYCLOHEXYL3333    0.0063
     21 C6         -0.6786   -0.0059    1.9585 C.3     3  CYCLOHEXYL3333   -0.0302
     22 N22         3.1071   -0.8697    1.7454 N.am    3  CYCLOHEXYL3333   -0.3008
     23 C23         3.7706    0.3649    2.1861 C.3     3  CYCLOHEXYL3333    0.0035
     24 O24         5.6374    0.3667   -2.6846 O.3     4  PHENYL4444   -0.4950
     25 C25         3.8207   -2.0012    1.4723 C.2     3  CYCLOHEXYL3333    0.2199
     26 O26         3.2612   -3.0121    1.0782 O.2     3  CYCLOHEXYL3333   -0.2752
     27 C27         5.3215   -2.1103    1.6161 C.3     3  CYCLOHEXYL3333    0.0495
     28 C           6.0807   -1.1972    0.6416 C.ar    4  PHENYL4444   -0.0317
     29 C           7.3274   -0.6722    1.0009 C.ar    4  PHENYL4444   -0.0161
     30 C           8.0094    0.1878    0.1362 C.ar    4  PHENYL4444    0.1238
     31 C           7.4471    0.5314   -1.0948 C.ar    4  PHENYL4444    0.0218
     32 C           6.2063    0.0071   -1.4629 C.ar    4  PHENYL4444    0.1238
     33 C           5.5400   -0.8764   -0.6091 C.ar    4  PHENYL4444   -0.0161
     34 C34         4.5431    1.2909   -2.5739 C.3     4  PHENYL4444    0.0788
     35 O35         9.2525    0.7028    0.5013 O.3     4  PHENYL4444   -0.4950
     36 C36         9.1749    1.8914    1.3033 C.3     4  PHENYL4444    0.0788
     37 H          -4.0132    1.7929   -2.5123 H       1  BENZYL1111    0.0399
     38 H          -6.4241    2.5313   -1.3986 H       1  BENZYL1111    0.0620
     39 H          -7.2652    4.4106   -0.1242 H       1  BENZYL1111    0.0618
     40 H          -5.7595    5.6895    1.2954 H       1  BENZYL1111    0.0618
     41 H          -3.4075    5.0888    1.4019 H       1  BENZYL1111    0.0618
     42 H          -2.5662    3.2167    0.1150 H       1  BENZYL1111    0.0620
     43 H          -5.3887    0.6791    0.7309 H       2  PHENYL2222    0.0620
     44 H          -6.9380   -1.1623    1.0324 H       2  PHENYL2222    0.0618
     45 H          -7.4233   -2.6617   -0.8178 H       2  PHENYL2222    0.0618
     46 H          -6.3491   -2.3130   -2.9704 H       2  PHENYL2222    0.0618
     47 H          -4.7999   -0.4712   -3.2707 H       2  PHENYL2222    0.0620
     48 H          -1.8522    1.7028   -1.4221 H       1  BENZYL1111    0.0326
     49 H          -2.3885    0.1201   -1.9769 H       1  BENZYL1111    0.0326
     50 H          -2.7952   -0.6763    0.1873 H       1  BENZYL1111    0.0815
     51 H          -2.8034    0.9464    0.8510 H       1  BENZYL1111    0.0815
     52 H          -0.5204    1.1042    0.2625 H       3  CYCLOHEXYL3333    0.2033
     53 H          -0.2911   -0.5885   -1.3579 H       3  CYCLOHEXYL3333    0.0815
     54 H          -0.4534   -1.7628   -0.0758 H       3  CYCLOHEXYL3333    0.0815
     55 H           1.9325   -1.3978   -0.5841 H       3  CYCLOHEXYL3333    0.0335
     56 H           1.7287    0.3029   -0.2547 H       3  CYCLOHEXYL3333    0.0335
     57 H           1.3360   -1.8798    1.8385 H       3  CYCLOHEXYL3333    0.0504
     58 H           0.9751   -0.0184    3.3554 H       3  CYCLOHEXYL3333    0.0335
     59 H           1.1563    1.1050    2.0374 H       3  CYCLOHEXYL3333    0.0335
     60 H          -1.0435   -0.9654    2.2602 H       3  CYCLOHEXYL3333    0.0815
     61 H          -1.2142    0.7548    2.4871 H       3  CYCLOHEXYL3333    0.0815
     62 H           3.0370    1.1274    2.3451 H       3  CYCLOHEXYL3333    0.0429
     63 H           4.4836    0.6836    1.4547 H       3  CYCLOHEXYL3333    0.0429
     64 H           4.2881    0.1778    3.1038 H       3  CYCLOHEXYL3333    0.0429
     65 H           5.6247   -3.1258    1.4687 H       3  CYCLOHEXYL3333    0.0407
     66 H           5.5673   -1.7878    2.6063 H       3  CYCLOHEXYL3333    0.0407
     67 H           7.7458   -0.9220    1.9106 H       4  PHENYL4444    0.0657
     68 H           7.9474    1.1715   -1.7312 H       4  PHENYL4444    0.0691
     69 H           4.6435   -1.2950   -0.9027 H       4  PHENYL4444    0.0657
     70 H           4.1646    1.5148   -3.5494 H       4  PHENYL4444    0.0660
     71 H           4.8635    2.1877   -2.0861 H       4  PHENYL4444    0.0660
     72 H           3.7655    0.8468   -1.9883 H       4  PHENYL4444    0.0660
     73 H          10.1627    2.2258    1.5428 H       4  PHENYL4444    0.0660
     74 H           8.6217    1.6987    2.1987 H       4  PHENYL4444    0.0660
     75 H           8.6690    2.6558    0.7513 H       4  PHENYL4444    0.0660
@<TRIPOS>BOND
     1     1     2    1
     2     2     3   ar
     3     2     7   ar
     4     7     6   ar
     5     6     5   ar
     6     5     4   ar
     7     4     3   ar
     8     8     9   ar
     9     8    13   ar
    10    13    12   ar
    11    12    11   ar
    12    11    10   ar
    13    10     9   ar
    14     1     8    1
    15     1    14    1
    16    14    15    1
    17    16    17    1
    18    16    21    1
    19    21    20    1
    20    20    19    1
    21    19    18    1
    22    18    17    1
    23    15    16    1
    24    19    22    1
    25    22    23    1
    26    32    24    1
    27    22    25   am
    28    25    26    2
    29    25    27    1
    30    28    29   ar
    31    33    28   ar
    32    33    32   ar
    33    32    31   ar
    34    31    30   ar
    35    30    29   ar
    36    27    28    1
    37    24    34    1
    38    30    35    1
    39    35    36    1
    40     1    37    1
    41     3    38    1
    42     4    39    1
    43     5    40    1
    44     6    41    1
    45     7    42    1
    46     9    43    1
    47    10    44    1
    48    11    45    1
    49    12    46    1
    50    13    47    1
    51    14    48    1
    52    14    49    1
    53    15    50    1
    54    15    51    1
    55    16    52    1
    56    17    53    1
    57    17    54    1
    58    18    55    1
    59    18    56    1
    60    19    57    1
    61    20    58    1
    62    20    59    1
    63    21    60    1
    64    21    61    1
    65    23    62    1
    66    23    63    1
    67    23    64    1
    68    27    65    1
    69    27    66    1
    70    29    67    1
    71    31    68    1
    72    33    69    1
    73    34    70    1
    74    34    71    1
    75    34    72    1
    76    36    73    1
    77    36    74    1
    78    36    75    1
