@<TRIPOS>MOLECULE
CCR5_42
 73 76 0 0 0
SMALL
GASTEIGER

@<TRIPOS>ATOM
      1 C1         -4.0114    1.4141   -1.5048 C.3     1  BENZYL1111    0.0140
      2 C2         -4.4122    2.6707   -0.7012 C.ar    1  BENZYL1111   -0.0398
      3 C3         -5.7362    3.1144   -0.8164 C.ar    1  BENZYL1111   -0.0580
      4 C4         -6.1910    4.2249   -0.1000 C.ar    1  BENZYL1111   -0.0615
      5 C5         -5.3161    4.9194    0.7380 C.ar    1  BENZYL1111   -0.0617
      6 C6         -3.9879    4.5010    0.8457 C.ar    1  BENZYL1111   -0.0615
      7 C7         -3.5371    3.3908    0.1250 C.ar    1  BENZYL1111   -0.0580
      8 C          -5.0091    0.2621   -1.2862 C.ar    2  PHENYL2222   -0.0398
      9 C          -5.6405    0.0780   -0.0496 C.ar    2  PHENYL2222   -0.0580
     10 C          -6.5474   -0.9696    0.1348 C.ar    2  PHENYL2222   -0.0615
     11 C          -6.8289   -1.8455   -0.9167 C.ar    2  PHENYL2222   -0.0617
     12 C          -6.1999   -1.6708   -2.1521 C.ar    2  PHENYL2222   -0.0615
     13 C          -5.2934   -0.6222   -2.3336 C.ar    2  PHENYL2222   -0.0580
     14 C14        -2.5699    0.8663   -1.2909 C.3     1  BENZYL1111   -0.0017
     15 C15        -2.3690    0.1937    0.0974 C.3     1  BENZYL1111   -0.0310
     16 N16        -0.9388    0.0990    0.4951 N.4     3  CYCLOHEXYL3333    0.2353
     17 C2         -0.0616   -0.6547   -0.4364 C.3     3  CYCLOHEXYL3333   -0.0302
     18 C3          1.4271   -0.4776   -0.0434 C.3     3  CYCLOHEXYL3333    0.0063
     19 C4          1.6644   -0.9183    1.4196 C.3     3  CYCLOHEXYL3333    0.0359
     20 C5          0.7064   -0.1302    2.3527 C.3     3  CYCLOHEXYL3333    0.0063
     21 C6         -0.7633   -0.3356    1.9056 C.3     3  CYCLOHEXYL3333   -0.0302
     22 N22         3.1026   -0.7863    1.7197 N.am    3  CYCLOHEXYL3333   -0.2940
     23 N           8.1259    0.7423   -2.4217 N.pl3   5  NO25555     0.0564
     24 O           7.7501    0.5384   -3.5560 O.2     5  NO25555    -0.1261
     25 C25         3.8867   -1.8978    1.6014 C.2     3  CYCLOHEXYL3333    0.2204
     26 O26         3.4227   -2.9751    1.2635 O.2     3  CYCLOHEXYL3333   -0.2752
     27 C27         5.3772   -1.8890    1.8568 C.3     3  CYCLOHEXYL3333    0.0493
     28 C           6.1443   -1.2155    0.7096 C.ar    4  PHENYL4444   -0.0385
     29 C           7.2243   -0.3670    0.9724 C.ar    4  PHENYL4444   -0.0560
     30 C           7.8848    0.2849   -0.0732 C.ar    4  PHENYL4444   -0.0312
     31 C           7.4928    0.0942   -1.4061 C.ar    4  PHENYL4444    0.1262
     32 C           6.4299   -0.7838   -1.6625 C.ar    4  PHENYL4444   -0.0312
     33 C           5.7676   -1.4364   -0.6187 C.ar    4  PHENYL4444   -0.0560
     34 O           9.0347    1.4950   -2.1446 O.2     5  NO25555    -0.1261
     35 C1          3.7142    0.4998    2.0792 C.3     6  ALLYL6666    0.0329
     36 C2          3.9360    0.5577    3.5702 C.2     6  ALLYL6666   -0.0739
     37 C3          5.0760    0.9882    4.1250 C.2     6  ALLYL6666   -0.1012
     38 H          -4.0345    1.7749   -2.5119 H       1  BENZYL1111    0.0399
     39 H          -6.3867    2.6126   -1.4409 H       1  BENZYL1111    0.0620
     40 H          -7.1723    4.5313   -0.1902 H       1  BENZYL1111    0.0618
     41 H          -5.6486    5.7362    1.2740 H       1  BENZYL1111    0.0618
     42 H          -3.3362    5.0136    1.4601 H       1  BENZYL1111    0.0618
     43 H          -2.5504    3.0983    0.2018 H       1  BENZYL1111    0.0620
     44 H          -5.4346    0.7206    0.7312 H       2  PHENYL2222    0.0620
     45 H          -7.0096   -1.0962    1.0488 H       2  PHENYL2222    0.0618
     46 H          -7.4989   -2.6187   -0.7814 H       2  PHENYL2222    0.0618
     47 H          -6.4046   -2.3162   -2.9309 H       2  PHENYL2222    0.0618
     48 H          -4.8299   -0.4989   -3.2474 H       2  PHENYL2222    0.0620
     49 H          -1.8627    1.6603   -1.4108 H       1  BENZYL1111    0.0326
     50 H          -2.4140    0.1072   -2.0287 H       1  BENZYL1111    0.0326
     51 H          -2.8059   -0.7830    0.0905 H       1  BENZYL1111    0.0815
     52 H          -2.8541    0.8162    0.8199 H       1  BENZYL1111    0.0815
     53 H          -0.6085    1.0614    0.4241 H       3  CYCLOHEXYL3333    0.2033
     54 H          -0.2187   -0.3202   -1.4406 H       3  CYCLOHEXYL3333    0.0815
     55 H          -0.3095   -1.6936   -0.3723 H       3  CYCLOHEXYL3333    0.0815
     56 H           2.0502   -1.0450   -0.7027 H       3  CYCLOHEXYL3333    0.0335
     57 H           1.6778    0.5591   -0.1286 H       3  CYCLOHEXYL3333    0.0335
     58 H           1.4258   -1.9482    1.5849 H       3  CYCLOHEXYL3333    0.0504
     59 H           0.8317   -0.4515    3.3656 H       3  CYCLOHEXYL3333    0.0335
     60 H           0.9434    0.9113    2.2895 H       3  CYCLOHEXYL3333    0.0335
     61 H          -1.0396   -1.3639    2.0109 H       3  CYCLOHEXYL3333    0.0815
     62 H          -1.3977    0.2591    2.5291 H       3  CYCLOHEXYL3333    0.0815
     63 H           5.7292   -2.8905    1.9913 H       3  CYCLOHEXYL3333    0.0407
     64 H           5.5541   -1.3222    2.7470 H       3  CYCLOHEXYL3333    0.0407
     65 H           7.5361   -0.2210    1.9453 H       4  PHENYL4444    0.0621
     66 H           8.6731    0.9162    0.1391 H       4  PHENYL4444    0.0640
     67 H           6.1321   -0.9507   -2.6364 H       4  PHENYL4444    0.0640
     68 H           4.9944   -2.0864   -0.8302 H       4  PHENYL4444    0.0621
     69 H           4.6424    0.6254    1.5620 H       6  ALLYL6666    0.0508
     70 H           3.0554    1.2927    1.7925 H       6  ALLYL6666    0.0508
     71 H           3.1722    0.2507    4.1926 H       6  ALLYL6666    0.0582
     72 H           5.8557    1.3009    3.5256 H       6  ALLYL6666    0.0532
     73 H           5.1750    1.0073    5.1521 H       6  ALLYL6666    0.0532
@<TRIPOS>BOND
     1     1     2    1
     2     2     3   ar
     3     2     7   ar
     4     7     6   ar
     5     6     5   ar
     6     5     4   ar
     7     4     3   ar
     8     8     9   ar
     9     8    13   ar
    10    13    12   ar
    11    12    11   ar
    12    11    10   ar
    13    10     9   ar
    14     1     8    1
    15     1    14    1
    16    14    15    1
    17    16    17    1
    18    16    21    1
    19    21    20    1
    20    20    19    1
    21    19    18    1
    22    18    17    1
    23    15    16    1
    24    19    22    1
    25    23    24    2
    26    23    34    2
    27    22    25   am
    28    25    26    2
    29    25    27    1
    30    28    29   ar
    31    28    33   ar
    32    33    32   ar
    33    32    31   ar
    34    31    30   ar
    35    30    29   ar
    36    27    28    1
    37    31    23    1
    38    35    36    1
    39    36    37    2
    40    22    35    1
    41     1    38    1
    42     3    39    1
    43     4    40    1
    44     5    41    1
    45     6    42    1
    46     7    43    1
    47     9    44    1
    48    10    45    1
    49    11    46    1
    50    12    47    1
    51    13    48    1
    52    14    49    1
    53    14    50    1
    54    15    51    1
    55    15    52    1
    56    16    53    1
    57    17    54    1
    58    17    55    1
    59    18    56    1
    60    18    57    1
    61    19    58    1
    62    20    59    1
    63    20    60    1
    64    21    61    1
    65    21    62    1
    66    27    63    1
    67    27    64    1
    68    29    65    1
    69    30    66    1
    70    32    67    1
    71    33    68    1
    72    35    69    1
    73    35    70    1
    74    36    71    1
    75    37    72    1
    76    37    73    1
