@<TRIPOS>MOLECULE
CCR5_16
 75 78 0 0 0
SMALL
GASTEIGER

@<TRIPOS>ATOM
      1 C1         -3.9947    1.4293   -1.5028 C.3     1  BENZYL1111    0.0140
      2 C2         -4.4329    2.6792   -0.7081 C.ar    1  BENZYL1111   -0.0398
      3 C3         -5.7745    3.0714   -0.8060 C.ar    1  BENZYL1111   -0.0580
      4 C4         -6.2631    4.1623   -0.0817 C.ar    1  BENZYL1111   -0.0615
      5 C5         -5.4044    4.8916    0.7433 C.ar    1  BENZYL1111   -0.0617
      6 C6         -4.0574    4.5314    0.8253 C.ar    1  BENZYL1111   -0.0615
      7 C7         -3.5726    3.4422    0.0945 C.ar    1  BENZYL1111   -0.0580
      8 C          -4.9739    0.2587   -1.2987 C.ar    2  PHENYL2222   -0.0398
      9 C          -5.6029    0.0511   -0.0647 C.ar    2  PHENYL2222   -0.0580
     10 C          -6.4940   -1.0120    0.1073 C.ar    2  PHENYL2222   -0.0615
     11 C          -6.7610   -1.8806   -0.9540 C.ar    2  PHENYL2222   -0.0617
     12 C          -6.1335   -1.6831   -2.1866 C.ar    2  PHENYL2222   -0.0615
     13 C          -5.2432   -0.6188   -2.3559 C.ar    2  PHENYL2222   -0.0580
     14 C14        -2.5492    0.9030   -1.2621 C.3     1  BENZYL1111   -0.0017
     15 C15        -2.3495    0.2767    0.1474 C.3     1  BENZYL1111   -0.0310
     16 N16        -0.9108    0.1784    0.5140 N.4     3  CYCLOHEXYL3333    0.2353
     17 C2         -0.1268   -0.7899   -0.2936 C.3     3  CYCLOHEXYL3333   -0.0302
     18 C3          1.3876   -0.6899    0.0216 C.3     3  CYCLOHEXYL3333    0.0063
     19 C4          1.6545   -0.8950    1.5337 C.3     3  CYCLOHEXYL3333    0.0353
     20 C5          0.8175    0.1585    2.3054 C.3     3  CYCLOHEXYL3333    0.0063
     21 C6         -0.6874    0.0035    1.9717 C.3     3  CYCLOHEXYL3333   -0.0302
     22 N22         3.1115   -0.8675    1.7535 N.am    3  CYCLOHEXYL3333   -0.3008
     23 C23         3.8247    0.3465    2.1744 C.3     3  CYCLOHEXYL3333    0.0035
     24 O24         7.5413    1.9951   -1.9897 O.3     4  PHENYL4444   -0.4915
     25 C25         3.8103   -1.9888    1.4093 C.2     3  CYCLOHEXYL3333    0.2199
     26 O26         3.2364   -3.0078    1.0588 O.2     3  CYCLOHEXYL3333   -0.2752
     27 C27         5.3201   -2.0615    1.4154 C.3     3  CYCLOHEXYL3333    0.0494
     28 C           5.9264   -0.9791    0.5114 C.ar    4  PHENYL4444   -0.0349
     29 C           7.0055   -0.1994    0.9423 C.ar    4  PHENYL4444   -0.0127
     30 C           7.5356    0.7965    0.1173 C.ar    4  PHENYL4444    0.1618
     31 C           6.9958    1.0142   -1.1553 C.ar    4  PHENYL4444    0.1615
     32 C           5.9062    0.2488   -1.5817 C.ar    4  PHENYL4444   -0.0160
     33 C           5.3909   -0.7592   -0.7622 C.ar    4  PHENYL4444   -0.0544
     34 C34         8.1491    1.5200   -3.2029 C.3     4  PHENYL4444    0.0790
     35 O35         8.6028    1.5739    0.5723 O.3     4  PHENYL4444   -0.4914
     36 C36         9.8907    0.9609    0.4071 C.3     4  PHENYL4444    0.0790
     37 H          -4.0056    1.7922   -2.5093 H       1  BENZYL1111    0.0399
     38 H          -6.4128    2.5457   -1.4235 H       1  BENZYL1111    0.0620
     39 H          -7.2574    4.4285   -0.1565 H       1  BENZYL1111    0.0618
     40 H          -5.7625    5.6912    1.2887 H       1  BENZYL1111    0.0618
     41 H          -3.4170    5.0715    1.4280 H       1  BENZYL1111    0.0618
     42 H          -2.5714    3.1974    0.1464 H       1  BENZYL1111    0.0620
     43 H          -5.4070    0.6878    0.7235 H       2  PHENYL2222    0.0620
     44 H          -6.9552   -1.1555    1.0193 H       2  PHENYL2222    0.0618
     45 H          -7.4194   -2.6653   -0.8279 H       2  PHENYL2222    0.0618
     46 H          -6.3274   -2.3233   -2.9725 H       2  PHENYL2222    0.0618
     47 H          -4.7806   -0.4787   -3.2677 H       2  PHENYL2222    0.0620
     48 H          -1.8492    1.6999   -1.4031 H       1  BENZYL1111    0.0326
     49 H          -2.3819    0.1220   -1.9741 H       1  BENZYL1111    0.0326
     50 H          -2.7994   -0.6935    0.1804 H       1  BENZYL1111    0.0815
     51 H          -2.8221    0.9213    0.8587 H       1  BENZYL1111    0.0815
     52 H          -0.5357    1.0937    0.2653 H       3  CYCLOHEXYL3333    0.2033
     53 H          -0.2948   -0.6161   -1.3359 H       3  CYCLOHEXYL3333    0.0815
     54 H          -0.4543   -1.7762   -0.0391 H       3  CYCLOHEXYL3333    0.0815
     55 H           1.9285   -1.4171   -0.5473 H       3  CYCLOHEXYL3333    0.0335
     56 H           1.7221    0.2901   -0.2480 H       3  CYCLOHEXYL3333    0.0335
     57 H           1.3378   -1.8450    1.9107 H       3  CYCLOHEXYL3333    0.0504
     58 H           0.9733    0.0520    3.3586 H       3  CYCLOHEXYL3333    0.0335
     59 H           1.1354    1.1347    2.0039 H       3  CYCLOHEXYL3333    0.0335
     60 H          -1.0369   -0.9581    2.2850 H       3  CYCLOHEXYL3333    0.0815
     61 H          -1.2353    0.7581    2.4964 H       3  CYCLOHEXYL3333    0.0815
     62 H           3.1167    1.1155    2.4030 H       3  CYCLOHEXYL3333    0.0429
     63 H           4.4892    0.6725    1.4017 H       3  CYCLOHEXYL3333    0.0429
     64 H           4.4029    0.1297    3.0483 H       3  CYCLOHEXYL3333    0.0429
     65 H           5.6410   -3.0298    1.0925 H       3  CYCLOHEXYL3333    0.0407
     66 H           5.6599   -1.8919    2.4157 H       3  CYCLOHEXYL3333    0.0407
     67 H           7.4131   -0.3610    1.8765 H       4  PHENYL4444    0.0658
     68 H           5.4810    0.4288   -2.5047 H       4  PHENYL4444    0.0655
     69 H           4.6106   -1.3449   -1.0986 H       4  PHENYL4444    0.0622
     70 H           8.5305    2.3500   -3.7602 H       4  PHENYL4444    0.0660
     71 H           7.4352    0.9781   -3.7873 H       4  PHENYL4444    0.0660
     72 H           8.9554    0.8608   -2.9576 H       4  PHENYL4444    0.0660
     73 H          10.6492    1.6178    0.7786 H       4  PHENYL4444    0.0660
     74 H          10.0657    0.7390   -0.6249 H       4  PHENYL4444    0.0660
     75 H           9.9176    0.0447    0.9592 H       4  PHENYL4444    0.0660
@<TRIPOS>BOND
     1     1     2    1
     2     2     3   ar
     3     2     7   ar
     4     7     6   ar
     5     6     5   ar
     6     5     4   ar
     7     4     3   ar
     8     8     9   ar
     9     8    13   ar
    10    13    12   ar
    11    12    11   ar
    12    11    10   ar
    13    10     9   ar
    14     1     8    1
    15     1    14    1
    16    14    15    1
    17    16    17    1
    18    16    21    1
    19    21    20    1
    20    20    19    1
    21    19    18    1
    22    18    17    1
    23    15    16    1
    24    19    22    1
    25    22    23    1
    26    31    24    1
    27    22    25   am
    28    25    26    2
    29    25    27    1
    30    28    29   ar
    31    33    28   ar
    32    32    33   ar
    33    32    31   ar
    34    31    30   ar
    35    30    29   ar
    36    27    28    1
    37    24    34    1
    38    30    35    1
    39    35    36    1
    40     1    37    1
    41     3    38    1
    42     4    39    1
    43     5    40    1
    44     6    41    1
    45     7    42    1
    46     9    43    1
    47    10    44    1
    48    11    45    1
    49    12    46    1
    50    13    47    1
    51    14    48    1
    52    14    49    1
    53    15    50    1
    54    15    51    1
    55    16    52    1
    56    17    53    1
    57    17    54    1
    58    18    55    1
    59    18    56    1
    60    19    57    1
    61    20    58    1
    62    20    59    1
    63    21    60    1
    64    21    61    1
    65    23    62    1
    66    23    63    1
    67    23    64    1
    68    27    65    1
    69    27    66    1
    70    29    67    1
    71    32    68    1
    72    33    69    1
    73    34    70    1
    74    34    71    1
    75    34    72    1
    76    36    73    1
    77    36    74    1
    78    36    75    1
