@<TRIPOS>MOLECULE
CCR5_61
 79 82 0 0 0
SMALL
GASTEIGER

@<TRIPOS>ATOM
      1 C1         -4.0012    1.4147   -1.5072 C.3     1  BENZYL1111    0.0140
      2 C2         -4.4153    2.6763   -0.7184 C.ar    1  BENZYL1111   -0.0398
      3 C3         -5.7404    3.1123   -0.8504 C.ar    1  BENZYL1111   -0.0580
      4 C4         -6.2090    4.2237   -0.1447 C.ar    1  BENZYL1111   -0.0615
      5 C5         -5.3470    4.9272    0.6991 C.ar    1  BENZYL1111   -0.0617
      6 C6         -4.0172    4.5181    0.8215 C.ar    1  BENZYL1111   -0.0615
      7 C7         -3.5522    3.4073    0.1106 C.ar    1  BENZYL1111   -0.0580
      8 C          -4.9950    0.2614   -1.2786 C.ar    2  PHENYL2222   -0.0398
      9 C          -5.6308    0.0888   -0.0431 C.ar    2  PHENYL2222   -0.0577
     10 C          -6.5364   -0.9582    0.1502 C.ar    2  PHENYL2222   -0.0586
     11 C          -6.8134   -1.8549   -0.8870 C.ar    2  PHENYL2222   -0.0504
     12 C          -6.1790   -1.6849   -2.1217 C.ar    2  PHENYL2222   -0.0586
     13 C          -5.2741   -0.6370   -2.3146 C.ar    2  PHENYL2222   -0.0577
     14 C14        -2.5574    0.8773   -1.2811 C.3     1  BENZYL1111   -0.0017
     15 C15        -2.3617    0.2131    0.1118 C.3     1  BENZYL1111   -0.0310
     16 N16        -0.9332    0.1154    0.5158 N.4     3  CYCLOHEXYL3333    0.2353
     17 C2         -0.0571   -0.6520   -0.4050 C.3     3  CYCLOHEXYL3333   -0.0302
     18 C3          1.4303   -0.4923   -0.0002 C.3     3  CYCLOHEXYL3333    0.0063
     19 C4          1.6600   -0.9343    1.4649 C.3     3  CYCLOHEXYL3333    0.0356
     20 C5          0.7004   -0.1369    2.3873 C.3     3  CYCLOHEXYL3333    0.0063
     21 C6         -0.7688   -0.3180    1.9275 C.3     3  CYCLOHEXYL3333   -0.0302
     22 N22         3.1035   -0.8147    1.7492 N.am    3  CYCLOHEXYL3333   -0.2980
     23 C23         3.7118    0.4428    2.2124 C.3     3  CYCLOHEXYL3333    0.0121
     24 C24         3.7925    0.5192    3.7598 C.3     3  CYCLOHEXYL3333   -0.0493
     25 C25         3.8885   -1.9006    1.4789 C.2     3  CYCLOHEXYL3333    0.2201
     26 O26         3.4051   -2.9440    1.0688 O.2     3  CYCLOHEXYL3333   -0.2752
     27 C27         5.3940   -1.9161    1.6272 C.3     3  CYCLOHEXYL3333    0.0493
     28 C           6.0753   -1.1395    0.4902 C.ar    4  PHENYL4444   -0.0385
     29 C           7.1807   -0.3208    0.7504 C.ar    4  PHENYL4444   -0.0563
     30 C           7.7631    0.4275   -0.2768 C.ar    4  PHENYL4444   -0.0366
     31 C           7.2473    0.3616   -1.5737 C.ar    4  PHENYL4444    0.0879
     32 C           6.1709   -0.4866   -1.8458 C.ar    4  PHENYL4444   -0.0366
     33 C           5.5918   -1.2385   -0.8197 C.ar    4  PHENYL4444   -0.0563
     34 S1          7.9914    1.3075   -2.8800 S.O2    5  SULFONYL5555   -0.0059
     35 O           7.0228    1.4983   -3.9417 O.2     5  SULFONYL5555   -0.1696
     36 O           8.6648    2.4586   -2.3113 O.2     5  SULFONYL5555   -0.1696
     37 C37        -7.7974   -3.0138   -0.6863 C.3     6  SULFONYL6666   -0.0397
     38 C40         9.2380    0.1417   -3.4489 C.3     5  SULFONYL5555    0.0596
     39 H          -4.0183    1.7635   -2.5186 H       1  BENZYL1111    0.0399
     40 H          -6.3813    2.6039   -1.4796 H       1  BENZYL1111    0.0620
     41 H          -7.1910    4.5242   -0.2470 H       1  BENZYL1111    0.0618
     42 H          -5.6902    5.7438    1.2286 H       1  BENZYL1111    0.0618
     43 H          -3.3747    5.0380    1.4395 H       1  BENZYL1111    0.0618
     44 H          -2.5640    3.1226    0.1969 H       1  BENZYL1111    0.0620
     45 H          -5.4290    0.7402    0.7315 H       2  PHENYL2222    0.0621
     46 H          -7.0035   -1.0703    1.0636 H       2  PHENYL2222    0.0620
     47 H          -6.3802   -2.3374   -2.8955 H       2  PHENYL2222    0.0620
     48 H          -4.8081   -0.5250   -3.2285 H       2  PHENYL2222    0.0621
     49 H          -1.8546    1.6752   -1.4003 H       1  BENZYL1111    0.0326
     50 H          -2.3915    0.1156   -2.0141 H       1  BENZYL1111    0.0326
     51 H          -2.8022   -0.7620    0.1101 H       1  BENZYL1111    0.0815
     52 H          -2.8459    0.8432    0.8284 H       1  BENZYL1111    0.0815
     53 H          -0.5978    1.0757    0.4404 H       3  CYCLOHEXYL3333    0.2033
     54 H          -0.2014   -0.3193   -1.4117 H       3  CYCLOHEXYL3333    0.0815
     55 H          -0.3183   -1.6875   -0.3389 H       3  CYCLOHEXYL3333    0.0815
     56 H           2.0512   -1.0656   -0.6565 H       3  CYCLOHEXYL3333    0.0335
     57 H           1.6890    0.5428   -0.0811 H       3  CYCLOHEXYL3333    0.0335
     58 H           1.4144   -1.9590    1.6507 H       3  CYCLOHEXYL3333    0.0504
     59 H           0.8109   -0.4615    3.4009 H       3  CYCLOHEXYL3333    0.0335
     60 H           0.9517    0.9013    2.3249 H       3  CYCLOHEXYL3333    0.0335
     61 H          -1.0630   -1.3413    2.0338 H       3  CYCLOHEXYL3333    0.0815
     62 H          -1.3949    0.2920    2.5446 H       3  CYCLOHEXYL3333    0.0815
     63 H           3.1534    1.2749    1.8373 H       3  CYCLOHEXYL3333    0.0462
     64 H           4.7129    0.4740    1.8359 H       3  CYCLOHEXYL3333    0.0462
     65 H           2.8050    0.4903    4.1708 H       3  CYCLOHEXYL3333    0.0245
     66 H           4.2929    1.4158    4.0608 H       3  CYCLOHEXYL3333    0.0245
     67 H           4.3500   -0.3180    4.1247 H       3  CYCLOHEXYL3333    0.0245
     68 H           5.7486   -2.9255    1.6432 H       3  CYCLOHEXYL3333    0.0407
     69 H           5.6411   -1.4362    2.5511 H       3  CYCLOHEXYL3333    0.0407
     70 H           7.5677   -0.2694    1.7057 H       4  PHENYL4444    0.0621
     71 H           8.5764    1.0304   -0.0766 H       4  PHENYL4444    0.0637
     72 H           5.8024   -0.5581   -2.8071 H       4  PHENYL4444    0.0637
     73 H           4.8031   -1.8703   -1.0290 H       4  PHENYL4444    0.0621
     74 H          -7.8712   -3.5804   -1.5909 H       6  SULFONYL6666    0.0278
     75 H          -8.7591   -2.6387   -0.4047 H       6  SULFONYL6666    0.0278
     76 H          -7.4390   -3.6478    0.0976 H       6  SULFONYL6666    0.0278
     77 H           9.7886    0.5741   -4.2580 H       5  SULFONYL5555    0.0468
     78 H           8.7760   -0.7714   -3.7614 H       5  SULFONYL5555    0.0468
     79 H           9.9086   -0.0768   -2.6442 H       5  SULFONYL5555    0.0468
@<TRIPOS>BOND
     1     1     2    1
     2     2     3   ar
     3     2     7   ar
     4     7     6   ar
     5     6     5   ar
     6     5     4   ar
     7     4     3   ar
     8     8     9   ar
     9     8    13   ar
    10    13    12   ar
    11    12    11   ar
    12    11    10   ar
    13    10     9   ar
    14     1     8    1
    15     1    14    1
    16    14    15    1
    17    16    17    1
    18    16    21    1
    19    21    20    1
    20    20    19    1
    21    19    18    1
    22    18    17    1
    23    15    16    1
    24    19    22    1
    25    22    23    1
    26    23    24    1
    27    22    25   am
    28    25    26    2
    29    25    27    1
    30    28    29   ar
    31    28    33   ar
    32    33    32   ar
    33    32    31   ar
    34    31    30   ar
    35    30    29   ar
    36    27    28    1
    37    34    35    2
    38    34    36    2
    39    31    34    1
    40    11    37    1
    41    34    38    1
    42     1    39    1
    43     3    40    1
    44     4    41    1
    45     5    42    1
    46     6    43    1
    47     7    44    1
    48     9    45    1
    49    10    46    1
    50    12    47    1
    51    13    48    1
    52    14    49    1
    53    14    50    1
    54    15    51    1
    55    15    52    1
    56    16    53    1
    57    17    54    1
    58    17    55    1
    59    18    56    1
    60    18    57    1
    61    19    58    1
    62    20    59    1
    63    20    60    1
    64    21    61    1
    65    21    62    1
    66    23    63    1
    67    23    64    1
    68    24    65    1
    69    24    66    1
    70    24    67    1
    71    27    68    1
    72    27    69    1
    73    29    70    1
    74    30    71    1
    75    32    72    1
    76    33    73    1
    77    37    74    1
    78    37    75    1
    79    37    76    1
    80    38    77    1
    81    38    78    1
    82    38    79    1
