@<TRIPOS>MOLECULE
CCR5_38
 77 81 0 0 0
SMALL
GASTEIGER

@<TRIPOS>ATOM
      1 C1         -3.9868    1.4536   -1.5004 C.3     1  BENZYL1111    0.0140
      2 C2         -4.4401    2.6850   -0.6847 C.ar    1  BENZYL1111   -0.0398
      3 C3         -5.7913    3.0500   -0.7546 C.ar    1  BENZYL1111   -0.0580
      4 C4         -6.2921    4.1152   -0.0012 C.ar    1  BENZYL1111   -0.0615
      5 C5         -5.4360    4.8498    0.8219 C.ar    1  BENZYL1111   -0.0617
      6 C6         -4.0793    4.5219    0.8710 C.ar    1  BENZYL1111   -0.0615
      7 C7         -3.5828    3.4576    0.1120 C.ar    1  BENZYL1111   -0.0580
      8 C          -4.9599    0.2730   -1.3251 C.ar    2  PHENYL2222   -0.0398
      9 C          -5.5821    0.0285   -0.0942 C.ar    2  PHENYL2222   -0.0580
     10 C          -6.4699   -1.0412    0.0521 C.ar    2  PHENYL2222   -0.0615
     11 C          -6.7408   -1.8796   -1.0323 C.ar    2  PHENYL2222   -0.0617
     12 C          -6.1195   -1.6459   -2.2617 C.ar    2  PHENYL2222   -0.0615
     13 C          -5.2317   -0.5757   -2.4049 C.ar    2  PHENYL2222   -0.0580
     14 C14        -2.5398    0.9315   -1.2564 C.3     1  BENZYL1111   -0.0017
     15 C15        -2.3439    0.3049    0.1528 C.3     1  BENZYL1111   -0.0310
     16 N16        -0.9007    0.1859    0.4958 N.4     3  CYCLOHEXYL3333    0.2353
     17 C2         -0.1908   -0.9102   -0.2093 C.3     3  CYCLOHEXYL3333   -0.0302
     18 C3          1.3356   -0.8347    0.0449 C.3     3  CYCLOHEXYL3333    0.0063
     19 C4          1.6561   -0.8834    1.5604 C.3     3  CYCLOHEXYL3333    0.0359
     20 C5          0.8811    0.2696    2.2475 C.3     3  CYCLOHEXYL3333    0.0063
     21 C6         -0.6376    0.1672    1.9562 C.3     3  CYCLOHEXYL3333   -0.0302
     22 N22         3.1229   -0.8576    1.6950 N.am    3  CYCLOHEXYL3333   -0.2947
     23 C23         3.8721    0.3944    1.8173 C.3     3  CYCLOHEXYL3333    0.0264
     24 C24         3.6550    1.2533    3.0859 C.3     3  CYCLOHEXYL3333   -0.0326
     25 C25         3.7878   -2.0290    1.4853 C.2     3  CYCLOHEXYL3333    0.2204
     26 O26         3.1802   -3.0803    1.3592 O.2     3  CYCLOHEXYL3333   -0.2752
     27 C27         5.2914   -2.1403    1.3740 C.3     3  CYCLOHEXYL3333    0.0493
     28 C           5.9147   -1.1071    0.4264 C.ar    4  PHENYL4444   -0.0385
     29 C           7.0947   -0.4387    0.7725 C.ar    4  PHENYL4444   -0.0563
     30 C           7.6395    0.5202   -0.0860 C.ar    4  PHENYL4444   -0.0366
     31 C           7.0173    0.8082   -1.3034 C.ar    4  PHENYL4444    0.0879
     32 C           5.8512    0.1269   -1.6621 C.ar    4  PHENYL4444   -0.0366
     33 C           5.3039   -0.8288   -0.8015 C.ar    4  PHENYL4444   -0.0563
     34 S1          7.7419    1.9930   -2.4103 S.O2    5  SULFONYL5555   -0.0059
     35 O           6.7368    2.4483   -3.3506 O.2     5  SULFONYL5555   -0.1696
     36 O36         8.4945    2.9643   -1.6409 O.2     5  SULFONYL5555   -0.1696
     37 C37         5.0087    0.5569    2.8540 C.3     3  CYCLOHEXYL3333   -0.0326
     38 C40         8.9051    0.9356   -3.2866 C.3     5  SULFONYL5555    0.0596
     39 H          -3.9915    1.8353   -2.5000 H       1  BENZYL1111    0.0399
     40 H          -6.4275    2.5231   -1.3731 H       1  BENZYL1111    0.0620
     41 H          -7.2936    4.3587   -0.0531 H       1  BENZYL1111    0.0618
     42 H          -5.8032    5.6293    1.3898 H       1  BENZYL1111    0.0618
     43 H          -3.4403    5.0676    1.4702 H       1  BENZYL1111    0.0618
     44 H          -2.5747    3.2383    0.1384 H       1  BENZYL1111    0.0620
     45 H          -5.3835    0.6429    0.7109 H       2  PHENYL2222    0.0620
     46 H          -6.9258   -1.2119    0.9621 H       2  PHENYL2222    0.0618
     47 H          -7.3974   -2.6686   -0.9256 H       2  PHENYL2222    0.0618
     48 H          -6.3161   -2.2638   -3.0646 H       2  PHENYL2222    0.0618
     49 H          -4.7727   -0.4098   -3.3142 H       2  PHENYL2222    0.0620
     50 H          -1.8418    1.7307   -1.3941 H       1  BENZYL1111    0.0326
     51 H          -2.3669    0.1523   -1.9691 H       1  BENZYL1111    0.0326
     52 H          -2.8088   -0.6580    0.1918 H       1  BENZYL1111    0.0815
     53 H          -2.8032    0.9522    0.8704 H       1  BENZYL1111    0.0815
     54 H          -0.4959    1.0507    0.1370 H       3  CYCLOHEXYL3333    0.2033
     55 H          -0.3899   -0.8592   -1.2594 H       3  CYCLOHEXYL3333    0.0815
     56 H          -0.5492   -1.8431    0.1730 H       3  CYCLOHEXYL3333    0.0815
     57 H           1.8297   -1.6392   -0.4587 H       3  CYCLOHEXYL3333    0.0335
     58 H           1.6907    0.0984   -0.3400 H       3  CYCLOHEXYL3333    0.0335
     59 H           1.3319   -1.7735    2.0579 H       3  CYCLOHEXYL3333    0.0504
     60 H           1.0535    0.2482    3.3033 H       3  CYCLOHEXYL3333    0.0335
     61 H           1.2374    1.1971    1.8503 H       3  CYCLOHEXYL3333    0.0335
     62 H          -1.0334   -0.7283    2.3878 H       3  CYCLOHEXYL3333    0.0815
     63 H          -1.1213    1.0147    2.3951 H       3  CYCLOHEXYL3333    0.0815
     64 H           3.8099    0.5411    0.7592 H       3  CYCLOHEXYL3333    0.0500
     65 H           2.9822    0.9776    3.8709 H       3  CYCLOHEXYL3333    0.0284
     66 H           3.3442    2.2597    3.2743 H       3  CYCLOHEXYL3333    0.0284
     67 H           5.5544   -3.1261    1.0516 H       3  CYCLOHEXYL3333    0.0407
     68 H           5.6861   -1.9395    2.3481 H       3  CYCLOHEXYL3333    0.0407
     69 H           7.5646   -0.6549    1.6655 H       4  PHENYL4444    0.0621
     70 H           8.5040    1.0170    0.1801 H       4  PHENYL4444    0.0637
     71 H           5.3931    0.3298   -2.5643 H       4  PHENYL4444    0.0637
     72 H           4.4447   -1.3319   -1.0731 H       4  PHENYL4444    0.0621
     73 H           5.9136    1.0905    2.6508 H       3  CYCLOHEXYL3333    0.0284
     74 H           5.6198   -0.1161    3.4184 H       3  CYCLOHEXYL3333    0.0284
     75 H           9.4379    1.5147   -4.0116 H       5  SULFONYL5555    0.0468
     76 H           8.3867    0.1304   -3.7639 H       5  SULFONYL5555    0.0468
     77 H           9.6007    0.5221   -2.5866 H       5  SULFONYL5555    0.0468
@<TRIPOS>BOND
     1     1     2    1
     2     2     3   ar
     3     2     7   ar
     4     7     6   ar
     5     6     5   ar
     6     5     4   ar
     7     4     3   ar
     8     8     9   ar
     9     8    13   ar
    10    13    12   ar
    11    12    11   ar
    12    11    10   ar
    13    10     9   ar
    14     1     8    1
    15     1    14    1
    16    14    15    1
    17    16    17    1
    18    16    21    1
    19    21    20    1
    20    20    19    1
    21    19    18    1
    22    18    17    1
    23    15    16    1
    24    19    22    1
    25    22    23    1
    26    23    24    1
    27    22    25   am
    28    25    26    2
    29    25    27    1
    30    28    29   ar
    31    28    33   ar
    32    33    32   ar
    33    32    31   ar
    34    31    30   ar
    35    30    29   ar
    36    27    28    1
    37    34    35    2
    38    34    36    2
    39    31    34    1
    40    23    37    1
    41    24    37    1
    42    34    38    1
    43     1    39    1
    44     3    40    1
    45     4    41    1
    46     5    42    1
    47     6    43    1
    48     7    44    1
    49     9    45    1
    50    10    46    1
    51    11    47    1
    52    12    48    1
    53    13    49    1
    54    14    50    1
    55    14    51    1
    56    15    52    1
    57    15    53    1
    58    16    54    1
    59    17    55    1
    60    17    56    1
    61    18    57    1
    62    18    58    1
    63    19    59    1
    64    20    60    1
    65    20    61    1
    66    21    62    1
    67    21    63    1
    68    23    64    1
    69    24    65    1
    70    24    66    1
    71    27    67    1
    72    27    68    1
    73    29    69    1
    74    30    70    1
    75    32    71    1
    76    33    72    1
    77    37    73    1
    78    37    74    1
    79    38    75    1
    80    38    76    1
    81    38    77    1
