@<TRIPOS>MOLECULE
CCR5_72
 76 79 0 0 0
SMALL
GASTEIGER

@<TRIPOS>ATOM
      1 C1         -4.0036    1.3957   -1.5092 C.3     1  BENZYL1111    0.0141
      2 C2         -4.4034    2.6607   -0.7181 C.ar    1  BENZYL1111   -0.0371
      3 C3         -5.7317    3.0956   -0.8195 C.ar    1  BENZYL1111   -0.0578
      4 C4         -6.1846    4.2099   -0.1076 C.ar    1  BENZYL1111   -0.0588
      5 C5         -5.3011    4.9203    0.7078 C.ar    1  BENZYL1111   -0.0264
      6 C6         -3.9688    4.5135    0.7980 C.ar    1  BENZYL1111    0.1237
      7 C7         -3.5215    3.3980    0.0854 C.ar    1  BENZYL1111   -0.0227
      8 C          -5.0078    0.2504   -1.2844 C.ar    2  PHENYL2222   -0.0397
      9 C          -5.6384    0.0755   -0.0459 C.ar    2  PHENYL2222   -0.0566
     10 C          -6.5613   -0.9577    0.1402 C.ar    2  PHENYL2222   -0.0431
     11 C          -6.8571   -1.8301   -0.9097 C.ar    2  PHENYL2222    0.0410
     12 C          -6.2232   -1.6696   -2.1440 C.ar    2  PHENYL2222   -0.0431
     13 C          -5.3009   -0.6355   -2.3282 C.ar    2  PHENYL2222   -0.0566
     14 C14        -2.5644    0.8461   -1.2839 C.3     1  BENZYL1111   -0.0017
     15 C15        -2.3669    0.2014    0.1178 C.3     1  BENZYL1111   -0.0310
     16 N16        -0.9383    0.1065    0.5211 N.4     3  CYCLOHEXYL3333    0.2353
     17 C2         -0.0568   -0.6547   -0.3995 C.3     3  CYCLOHEXYL3333   -0.0302
     18 C3          1.4289   -0.4820    0.0062 C.3     3  CYCLOHEXYL3333    0.0063
     19 C4          1.6616   -0.9233    1.4710 C.3     3  CYCLOHEXYL3333    0.0356
     20 C5          0.6948   -0.1351    2.3939 C.3     3  CYCLOHEXYL3333    0.0063
     21 C6         -0.7723   -0.3274    1.9326 C.3     3  CYCLOHEXYL3333   -0.0302
     22 N22         3.1038   -0.7923    1.7560 N.am    3  CYCLOHEXYL3333   -0.2980
     23 C23         3.7008    0.4672    2.2284 C.3     3  CYCLOHEXYL3333    0.0121
     24 C24         3.7770    0.5343    3.7763 C.3     3  CYCLOHEXYL3333   -0.0493
     25 C25         3.8984   -1.8694    1.4787 C.2     3  CYCLOHEXYL3333    0.2201
     26 O26         3.4246   -2.9134    1.0592 O.2     3  CYCLOHEXYL3333   -0.2752
     27 C27         5.4036   -1.8732    1.6304 C.3     3  CYCLOHEXYL3333    0.0493
     28 C           6.0812   -1.0817    0.5016 C.ar    4  PHENYL4444   -0.0385
     29 C           7.1768   -0.2532    0.7723 C.ar    4  PHENYL4444   -0.0563
     30 C           7.7553    0.5087   -0.2469 C.ar    4  PHENYL4444   -0.0366
     31 C           7.2459    0.4464   -1.5464 C.ar    4  PHENYL4444    0.0879
     32 C           6.1798   -0.4112   -1.8293 C.ar    4  PHENYL4444   -0.0366
     33 C           5.6043   -1.1764   -0.8110 C.ar    4  PHENYL4444   -0.0563
     34 S1          7.9863    1.4098   -2.8420 S.O2    5  SULFONYL5555   -0.0059
     35 O           7.0193    1.6034   -3.9046 O.2     5  SULFONYL5555   -0.1696
     36 O           8.6500    2.5603   -2.2608 O.2     5  SULFONYL5555   -0.1696
     37 Cl37       -8.0185   -3.1211   -0.6795 Cl      2  PHENYL2222   -0.0835
     38 F38        -3.1205    5.1927    1.5665 F       1  BENZYL1111   -0.2055
     39 C40         9.2428    0.2582   -3.4181 C.3     5  SULFONYL5555    0.0596
     40 H          -4.0204    1.7456   -2.5202 H       1  BENZYL1111    0.0399
     41 H          -6.3872    2.5840   -1.4307 H       1  BENZYL1111    0.0620
     42 H          -7.1699    4.5070   -0.1844 H       1  BENZYL1111    0.0619
     43 H          -5.6309    5.7406    1.2402 H       1  BENZYL1111    0.0646
     44 H          -2.5316    3.1136    0.1510 H       1  BENZYL1111    0.0649
     45 H          -5.4200    0.7141    0.7348 H       2  PHENYL2222    0.0621
     46 H          -7.0248   -1.0761    1.0546 H       2  PHENYL2222    0.0632
     47 H          -6.4360   -2.3151   -2.9206 H       2  PHENYL2222    0.0632
     48 H          -4.8323   -0.5241   -3.2409 H       2  PHENYL2222    0.0621
     49 H          -1.8537    1.6344   -1.4199 H       1  BENZYL1111    0.0326
     50 H          -2.4116    0.0714   -2.0060 H       1  BENZYL1111    0.0326
     51 H          -2.8093   -0.7728    0.1308 H       1  BENZYL1111    0.0815
     52 H          -2.8482    0.8430    0.8260 H       1  BENZYL1111    0.0815
     53 H          -0.6074    1.0683    0.4450 H       3  CYCLOHEXYL3333    0.2033
     54 H          -0.2036   -0.3236   -1.4063 H       3  CYCLOHEXYL3333    0.0815
     55 H          -0.3099   -1.6923   -0.3338 H       3  CYCLOHEXYL3333    0.0815
     56 H           2.0553   -1.0491   -0.6502 H       3  CYCLOHEXYL3333    0.0335
     57 H           1.6784    0.5554   -0.0737 H       3  CYCLOHEXYL3333    0.0335
     58 H           1.4244   -1.9502    1.6558 H       3  CYCLOHEXYL3333    0.0504
     59 H           0.8070   -0.4604    3.4071 H       3  CYCLOHEXYL3333    0.0335
     60 H           0.9378    0.9052    2.3334 H       3  CYCLOHEXYL3333    0.0335
     61 H          -1.0584   -1.3531    2.0373 H       3  CYCLOHEXYL3333    0.0815
     62 H          -1.4040    0.2766    2.5498 H       3  CYCLOHEXYL3333    0.0815
     63 H           3.1366    1.2971    1.8572 H       3  CYCLOHEXYL3333    0.0462
     64 H           4.7025    0.5091    1.8545 H       3  CYCLOHEXYL3333    0.0462
     65 H           2.7888    0.4946    4.1846 H       3  CYCLOHEXYL3333    0.0245
     66 H           4.2693    1.4330    4.0843 H       3  CYCLOHEXYL3333    0.0245
     67 H           4.3405   -0.3006    4.1372 H       3  CYCLOHEXYL3333    0.0245
     68 H           5.7668   -2.8796    1.6391 H       3  CYCLOHEXYL3333    0.0407
     69 H           5.6443   -1.3986    2.5587 H       3  CYCLOHEXYL3333    0.0407
     70 H           7.5594   -0.2047    1.7295 H       4  PHENYL4444    0.0621
     71 H           8.5611    1.1190   -0.0389 H       4  PHENYL4444    0.0637
     72 H           5.8163   -0.4799   -2.7927 H       4  PHENYL4444    0.0637
     73 H           4.8232   -1.8149   -1.0282 H       4  PHENYL4444    0.0621
     74 H           9.7924    0.7019   -4.2218 H       5  SULFONYL5555    0.0468
     75 H           8.7883   -0.6554   -3.7401 H       5  SULFONYL5555    0.0468
     76 H           9.9128    0.0373   -2.6136 H       5  SULFONYL5555    0.0468
@<TRIPOS>BOND
     1     1     2    1
     2     2     3   ar
     3     2     7   ar
     4     7     6   ar
     5     6     5   ar
     6     5     4   ar
     7     4     3   ar
     8     8     9   ar
     9     8    13   ar
    10    13    12   ar
    11    12    11   ar
    12    11    10   ar
    13    10     9   ar
    14     1     8    1
    15     1    14    1
    16    14    15    1
    17    16    17    1
    18    16    21    1
    19    21    20    1
    20    20    19    1
    21    19    18    1
    22    18    17    1
    23    15    16    1
    24    19    22    1
    25    22    23    1
    26    23    24    1
    27    22    25   am
    28    25    26    2
    29    25    27    1
    30    28    29   ar
    31    28    33   ar
    32    33    32   ar
    33    32    31   ar
    34    31    30   ar
    35    30    29   ar
    36    27    28    1
    37    34    35    2
    38    34    36    2
    39    31    34    1
    40    11    37    1
    41     6    38    1
    42    34    39    1
    43     1    40    1
    44     3    41    1
    45     4    42    1
    46     5    43    1
    47     7    44    1
    48     9    45    1
    49    10    46    1
    50    12    47    1
    51    13    48    1
    52    14    49    1
    53    14    50    1
    54    15    51    1
    55    15    52    1
    56    16    53    1
    57    17    54    1
    58    17    55    1
    59    18    56    1
    60    18    57    1
    61    19    58    1
    62    20    59    1
    63    20    60    1
    64    21    61    1
    65    21    62    1
    66    23    63    1
    67    23    64    1
    68    24    65    1
    69    24    66    1
    70    24    67    1
    71    27    68    1
    72    27    69    1
    73    29    70    1
    74    30    71    1
    75    32    72    1
    76    33    73    1
    77    39    74    1
    78    39    75    1
    79    39    76    1
