@<TRIPOS>MOLECULE
CCR5_13
 67 70 0 0 0
SMALL
GASTEIGER

@<TRIPOS>ATOM
      1 C1         -3.9950    1.4270   -1.5045 C.3     1  BENZYL1111    0.0140
      2 C2         -4.4299    2.6748   -0.7045 C.ar    1  BENZYL1111   -0.0398
      3 C3         -5.7732    3.0643   -0.7897 C.ar    1  BENZYL1111   -0.0580
      4 C4         -6.2582    4.1514   -0.0575 C.ar    1  BENZYL1111   -0.0615
      5 C5         -5.3941    4.8809    0.7617 C.ar    1  BENZYL1111   -0.0617
      6 C6         -4.0453    4.5247    0.8296 C.ar    1  BENZYL1111   -0.0615
      7 C7         -3.5643    3.4388    0.0915 C.ar    1  BENZYL1111   -0.0580
      8 C          -4.9772    0.2579   -1.3053 C.ar    2  PHENYL2222   -0.0398
      9 C          -5.6022    0.0433   -0.0705 C.ar    2  PHENYL2222   -0.0580
     10 C          -6.4970   -1.0174    0.0969 C.ar    2  PHENYL2222   -0.0615
     11 C          -6.7721   -1.8765   -0.9702 C.ar    2  PHENYL2222   -0.0617
     12 C          -6.1484   -1.6721   -2.2036 C.ar    2  PHENYL2222   -0.0615
     13 C          -5.2539   -0.6105   -2.3680 C.ar    2  PHENYL2222   -0.0580
     14 C14        -2.5508    0.8959   -1.2652 C.3     1  BENZYL1111   -0.0017
     15 C15        -2.3505    0.2740    0.1460 C.3     1  BENZYL1111   -0.0310
     16 N16        -0.9107    0.1760    0.5083 N.4     3  CYCLOHEXYL3333    0.2353
     17 C2         -0.1360   -0.8143   -0.2814 C.3     3  CYCLOHEXYL3333   -0.0302
     18 C3          1.3810   -0.7113    0.0208 C.3     3  CYCLOHEXYL3333    0.0063
     19 C4          1.6567   -0.8831    1.5356 C.3     3  CYCLOHEXYL3333    0.0353
     20 C5          0.8284    0.1906    2.2886 C.3     3  CYCLOHEXYL3333    0.0063
     21 C6         -0.6793    0.0346    1.9684 C.3     3  CYCLOHEXYL3333   -0.0302
     22 N22         3.1148   -0.8581    1.7504 N.am    3  CYCLOHEXYL3333   -0.3008
     23 C23         3.8345    0.3611    2.1444 C.3     3  CYCLOHEXYL3333    0.0035
     24 F24         8.5596    1.4856    0.4890 F       4  PHENYL4444   -0.2025
     25 C25         3.8066   -1.9910    1.4315 C.2     3  CYCLOHEXYL3333    0.2199
     26 O26         3.2266   -3.0104    1.0933 O.2     3  CYCLOHEXYL3333   -0.2752
     27 C27         5.3153   -2.0793    1.4518 C.3     3  CYCLOHEXYL3333    0.0494
     28 C           5.9380   -1.0364    0.5128 C.ar    4  PHENYL4444   -0.0357
     29 C           7.0109   -0.2393    0.9287 C.ar    4  PHENYL4444   -0.0200
     30 C           7.5472    0.7270    0.0736 C.ar    4  PHENYL4444    0.1587
     31 C           7.0212    0.8947   -1.2105 C.ar    4  PHENYL4444    0.1584
     32 C           5.9616    0.0906   -1.6369 C.ar    4  PHENYL4444   -0.0233
     33 C           5.4258   -0.8749   -0.7797 C.ar    4  PHENYL4444   -0.0552
     34 F34         7.5243    1.8160   -2.0297 F       4  PHENYL4444   -0.2025
     35 H          -4.0051    1.7940   -2.5095 H       1  BENZYL1111    0.0399
     36 H          -6.4154    2.5394   -1.4037 H       1  BENZYL1111    0.0620
     37 H          -7.2539    4.4148   -0.1222 H       1  BENZYL1111    0.0618
     38 H          -5.7496    5.6776    1.3130 H       1  BENZYL1111    0.0618
     39 H          -3.4007    5.0654    1.4272 H       1  BENZYL1111    0.0618
     40 H          -2.5619    3.1971    0.1330 H       1  BENZYL1111    0.0620
     41 H          -5.4006    0.6731    0.7218 H       2  PHENYL2222    0.0620
     42 H          -6.9550   -1.1662    1.0097 H       2  PHENYL2222    0.0618
     43 H          -7.4336   -2.6591   -0.8477 H       2  PHENYL2222    0.0618
     44 H          -6.3482   -2.3052   -2.9937 H       2  PHENYL2222    0.0618
     45 H          -4.7937   -0.4657   -3.2803 H       2  PHENYL2222    0.0620
     46 H          -1.8480    1.6895   -1.4106 H       1  BENZYL1111    0.0326
     47 H          -2.3880    0.1118   -1.9748 H       1  BENZYL1111    0.0326
     48 H          -2.8011   -0.6958    0.1829 H       1  BENZYL1111    0.0815
     49 H          -2.8221    0.9201    0.8567 H       1  BENZYL1111    0.0815
     50 H          -0.5326    1.0838    0.2374 H       3  CYCLOHEXYL3333    0.2033
     51 H          -0.3110   -0.6651   -1.3264 H       3  CYCLOHEXYL3333    0.0815
     52 H          -0.4649   -1.7932   -0.0012 H       3  CYCLOHEXYL3333    0.0815
     53 H           1.9161   -1.4527   -0.5350 H       3  CYCLOHEXYL3333    0.0335
     54 H           1.7168    0.2611   -0.2735 H       3  CYCLOHEXYL3333    0.0335
     55 H           1.3386   -1.8241    1.9333 H       3  CYCLOHEXYL3333    0.0504
     56 H           0.9907    0.1072    3.3429 H       3  CYCLOHEXYL3333    0.0335
     57 H           1.1479    1.1584    1.9628 H       3  CYCLOHEXYL3333    0.0335
     58 H          -1.0310   -0.9177    2.3065 H       3  CYCLOHEXYL3333    0.0815
     59 H          -1.2208    0.8036    2.4786 H       3  CYCLOHEXYL3333    0.0815
     60 H           3.1307    1.1389    2.3554 H       3  CYCLOHEXYL3333    0.0429
     61 H           4.5010    0.6661    1.3649 H       3  CYCLOHEXYL3333    0.0429
     62 H           4.4112    0.1607    3.0231 H       3  CYCLOHEXYL3333    0.0429
     63 H           5.6284   -3.0619    1.1666 H       3  CYCLOHEXYL3333    0.0407
     64 H           5.6504   -1.8775    2.4477 H       3  CYCLOHEXYL3333    0.0407
     65 H           7.4083   -0.3661    1.8727 H       4  PHENYL4444    0.0650
     66 H           5.5739    0.2095   -2.5859 H       4  PHENYL4444    0.0647
     67 H           4.6481   -1.4720   -1.1017 H       4  PHENYL4444    0.0621
@<TRIPOS>BOND
     1     1     2    1
     2     2     3   ar
     3     2     7   ar
     4     7     6   ar
     5     6     5   ar
     6     5     4   ar
     7     4     3   ar
     8     8     9   ar
     9     8    13   ar
    10    13    12   ar
    11    12    11   ar
    12    11    10   ar
    13    10     9   ar
    14     1     8    1
    15     1    14    1
    16    14    15    1
    17    16    17    1
    18    16    21    1
    19    21    20    1
    20    20    19    1
    21    19    18    1
    22    18    17    1
    23    15    16    1
    24    19    22    1
    25    22    23    1
    26    30    24    1
    27    22    25   am
    28    25    26    2
    29    25    27    1
    30    28    29   ar
    31    33    28   ar
    32    32    33   ar
    33    31    32   ar
    34    31    30   ar
    35    30    29   ar
    36    27    28    1
    37    31    34    1
    38     1    35    1
    39     3    36    1
    40     4    37    1
    41     5    38    1
    42     6    39    1
    43     7    40    1
    44     9    41    1
    45    10    42    1
    46    11    43    1
    47    12    44    1
    48    13    45    1
    49    14    46    1
    50    14    47    1
    51    15    48    1
    52    15    49    1
    53    16    50    1
    54    17    51    1
    55    17    52    1
    56    18    53    1
    57    18    54    1
    58    19    55    1
    59    20    56    1
    60    20    57    1
    61    21    58    1
    62    21    59    1
    63    23    60    1
    64    23    61    1
    65    23    62    1
    66    27    63    1
    67    27    64    1
    68    29    65    1
    69    32    66    1
    70    33    67    1
