@<TRIPOS>MOLECULE
CCR5_15
 71 74 0 0 0
SMALL
GASTEIGER

@<TRIPOS>ATOM
      1 C1         -3.9952    1.4326   -1.5049 C.3     1  BENZYL1111    0.0140
      2 C2         -4.4350    2.6808   -0.7084 C.ar    1  BENZYL1111   -0.0398
      3 C3         -5.7791    3.0665   -0.7980 C.ar    1  BENZYL1111   -0.0580
      4 C4         -6.2689    4.1543   -0.0700 C.ar    1  BENZYL1111   -0.0615
      5 C5         -5.4088    4.8880    0.7497 C.ar    1  BENZYL1111   -0.0617
      6 C6         -4.0593    4.5352    0.8224 C.ar    1  BENZYL1111   -0.0615
      7 C7         -3.5736    3.4486    0.0884 C.ar    1  BENZYL1111   -0.0580
      8 C          -4.9718    0.2598   -1.3008 C.ar    2  PHENYL2222   -0.0398
      9 C          -5.5964    0.0477   -0.0652 C.ar    2  PHENYL2222   -0.0580
     10 C          -6.4839   -1.0183    0.1074 C.ar    2  PHENYL2222   -0.0615
     11 C          -6.7526   -1.8848   -0.9552 C.ar    2  PHENYL2222   -0.0617
     12 C          -6.1304   -1.6822   -2.1897 C.ar    2  PHENYL2222   -0.0615
     13 C          -5.2433   -0.6153   -2.3594 C.ar    2  PHENYL2222   -0.0580
     14 C14        -2.5488    0.9078   -1.2648 C.3     1  BENZYL1111   -0.0017
     15 C15        -2.3478    0.2849    0.1459 C.3     1  BENZYL1111   -0.0310
     16 N16        -0.9088    0.1844    0.5106 N.4     3  CYCLOHEXYL3333    0.2353
     17 C2         -0.1297   -0.7927   -0.2913 C.3     3  CYCLOHEXYL3333   -0.0302
     18 C3          1.3856   -0.6971    0.0214 C.3     3  CYCLOHEXYL3333    0.0063
     19 C4          1.6529   -0.8928    1.5348 C.3     3  CYCLOHEXYL3333    0.0353
     20 C5          0.8215    0.1705    2.2992 C.3     3  CYCLOHEXYL3333    0.0063
     21 C6         -0.6844    0.0189    1.9694 C.3     3  CYCLOHEXYL3333   -0.0302
     22 N22         3.1103   -0.8713    1.7524 N.am    3  CYCLOHEXYL3333   -0.3008
     23 C23         3.8312    0.3417    2.1627 C.3     3  CYCLOHEXYL3333    0.0035
     24 O24         7.3069    2.0352   -2.0452 O.3     4  PHENYL4444   -0.4951
     25 C25         3.8031   -1.9985    1.4148 C.2     3  CYCLOHEXYL3333    0.2199
     26 O26         3.2238   -3.0180    1.0751 O.2     3  CYCLOHEXYL3333   -0.2752
     27 C27         5.3127   -2.0755    1.4123 C.3     3  CYCLOHEXYL3333    0.0493
     28 C           5.8962   -1.0060    0.4792 C.ar    4  PHENYL4444   -0.0384
     29 C           6.9308   -0.1624    0.9009 C.ar    4  PHENYL4444   -0.0547
     30 C           7.4024    0.8471    0.0565 C.ar    4  PHENYL4444   -0.0197
     31 C           6.8545    1.0078   -1.2181 C.ar    4  PHENYL4444    0.1201
     32 C           5.8557    0.1373   -1.6608 C.ar    4  PHENYL4444   -0.0197
     33 C           5.3795   -0.8673   -0.8140 C.ar    4  PHENYL4444   -0.0547
     34 C34         6.4314    3.1734   -2.0882 C.3     4  PHENYL4444    0.0788
     35 H          -4.0075    1.7969   -2.5109 H       1  BENZYL1111    0.0399
     36 H          -6.4184    2.5382   -1.4122 H       1  BENZYL1111    0.0620
     37 H          -7.2651    4.4150   -0.1381 H       1  BENZYL1111    0.0618
     38 H          -5.7677    5.6853    1.2979 H       1  BENZYL1111    0.0618
     39 H          -3.4177    5.0789    1.4205 H       1  BENZYL1111    0.0618
     40 H          -2.5708    3.2092    0.1336 H       1  BENZYL1111    0.0620
     41 H          -5.3999    0.6833    0.7237 H       2  PHENYL2222    0.0620
     42 H          -6.9412   -1.1655    1.0208 H       2  PHENYL2222    0.0618
     43 H          -7.4083   -2.6716   -0.8287 H       2  PHENYL2222    0.0618
     44 H          -6.3259   -2.3206   -2.9767 H       2  PHENYL2222    0.0618
     45 H          -4.7847   -0.4715   -3.2726 H       2  PHENYL2222    0.0620
     46 H          -1.8495    1.7048   -1.4081 H       1  BENZYL1111    0.0326
     47 H          -2.3812    0.1256   -1.9754 H       1  BENZYL1111    0.0326
     48 H          -2.7998   -0.6843    0.1823 H       1  BENZYL1111    0.0815
     49 H          -2.8177    0.9327    0.8562 H       1  BENZYL1111    0.0815
     50 H          -0.5303    1.0963    0.2546 H       3  CYCLOHEXYL3333    0.2033
     51 H          -0.2982   -0.6253   -1.3346 H       3  CYCLOHEXYL3333    0.0815
     52 H          -0.4611   -1.7759   -0.0296 H       3  CYCLOHEXYL3333    0.0815
     53 H           1.9226   -1.4307   -0.5429 H       3  CYCLOHEXYL3333    0.0335
     54 H           1.7244    0.2793   -0.2556 H       3  CYCLOHEXYL3333    0.0335
     55 H           1.3321   -1.8382    1.9197 H       3  CYCLOHEXYL3333    0.0504
     56 H           0.9787    0.0721    3.3530 H       3  CYCLOHEXYL3333    0.0335
     57 H           1.1428    1.1429    1.9891 H       3  CYCLOHEXYL3333    0.0335
     58 H          -1.0370   -0.9391    2.2899 H       3  CYCLOHEXYL3333    0.0815
     59 H          -1.2289    0.7789    2.4898 H       3  CYCLOHEXYL3333    0.0815
     60 H           3.1280    1.1163    2.3874 H       3  CYCLOHEXYL3333    0.0429
     61 H           4.4955    0.6584    1.3860 H       3  CYCLOHEXYL3333    0.0429
     62 H           4.4103    0.1280    3.0367 H       3  CYCLOHEXYL3333    0.0429
     63 H           5.6313   -3.0486    1.1018 H       3  CYCLOHEXYL3333    0.0407
     64 H           5.6680   -1.8965    2.4056 H       3  CYCLOHEXYL3333    0.0407
     65 H           7.3464   -0.2860    1.8374 H       4  PHENYL4444    0.0622
     66 H           8.1569    1.4748    0.3756 H       4  PHENYL4444    0.0654
     67 H           5.4696    0.2360   -2.6128 H       4  PHENYL4444    0.0654
     68 H           4.6429   -1.5103   -1.1441 H       4  PHENYL4444    0.0622
     69 H           6.8427    3.9160   -2.7395 H       4  PHENYL4444    0.0660
     70 H           6.2979    3.5754   -1.1056 H       4  PHENYL4444    0.0660
     71 H           5.4761    2.8684   -2.4614 H       4  PHENYL4444    0.0660
@<TRIPOS>BOND
     1     1     2    1
     2     2     3   ar
     3     2     7   ar
     4     7     6   ar
     5     6     5   ar
     6     5     4   ar
     7     4     3   ar
     8     8     9   ar
     9     8    13   ar
    10    13    12   ar
    11    12    11   ar
    12    11    10   ar
    13    10     9   ar
    14     1     8    1
    15     1    14    1
    16    14    15    1
    17    16    17    1
    18    16    21    1
    19    21    20    1
    20    20    19    1
    21    19    18    1
    22    18    17    1
    23    15    16    1
    24    19    22    1
    25    22    23    1
    26    31    24    1
    27    22    25   am
    28    25    26    2
    29    25    27    1
    30    28    29   ar
    31    33    28   ar
    32    32    33   ar
    33    32    31   ar
    34    31    30   ar
    35    30    29   ar
    36    27    28    1
    37    24    34    1
    38     1    35    1
    39     3    36    1
    40     4    37    1
    41     5    38    1
    42     6    39    1
    43     7    40    1
    44     9    41    1
    45    10    42    1
    46    11    43    1
    47    12    44    1
    48    13    45    1
    49    14    46    1
    50    14    47    1
    51    15    48    1
    52    15    49    1
    53    16    50    1
    54    17    51    1
    55    17    52    1
    56    18    53    1
    57    18    54    1
    58    19    55    1
    59    20    56    1
    60    20    57    1
    61    21    58    1
    62    21    59    1
    63    23    60    1
    64    23    61    1
    65    23    62    1
    66    27    63    1
    67    27    64    1
    68    29    65    1
    69    30    66    1
    70    32    67    1
    71    33    68    1
    72    34    69    1
    73    34    70    1
    74    34    71    1
