@<TRIPOS>MOLECULE
1_2F
 27 29 0 0 0
SMALL
GASTEIGER

@<TRIPOS>ATOM
      1 C          -1.3400    4.1603    0.7235 C.ar    1  LIG11      -0.0611
      2 C          -0.0226    4.3744    1.1013 C.ar    1  LIG11      -0.0597
      3 C           0.8801    3.3090    1.0919 C.ar    1  LIG11      -0.0357
      4 C           0.5026    2.0276    0.7132 C.ar    1  LIG11       0.0715
      5 C          -0.8357    1.7991    0.3268 C.ar    1  LIG11       0.0033
      6 C          -1.7454    2.8828    0.3389 C.ar    1  LIG11      -0.0523
      7 N           1.4344    1.0608    0.7331 N.ar    1  LIG11      -0.2513
      8 C           1.1006   -0.1985    0.3646 C.ar    1  LIG11       0.0453
      9 C          -0.1997   -0.5086   -0.0247 C.ar    1  LIG11      -0.0366
     10 C          -1.1856    0.4841   -0.0516 C.ar    1  LIG11      -0.0396
     11 C           2.1677   -1.2669    0.4062 C.3     1  LIG11       0.0014
     12 C           3.5387   -0.9851   -0.1658 C.3     1  LIG11      -0.0442
     13 C           2.6217   -1.9386   -0.8704 C.3     1  LIG11      -0.0442
     14 H          -2.0514    4.9818    0.7272 H       1  LIG11       0.0618
     15 H           0.3093    5.3639    1.4038 H       1  LIG11       0.0618
     16 H           1.9120    3.4821    1.3893 H       1  LIG11       0.0639
     17 H          -2.7828    2.7401    0.0473 H       1  LIG11       0.0624
     18 C          -2.5789    0.1165   -0.4808 C.3     1  LIG11      -0.0390
     19 H          -0.4358   -1.5304   -0.3080 H       1  LIG11       0.0638
     20 H           2.1531   -1.8853    1.3004 H       1  LIG11       0.0364
     21 H           4.3951   -1.3881    0.3615 H       1  LIG11       0.0272
     22 H           3.7160   -0.0153   -0.6183 H       1  LIG11       0.0272
     23 H           2.1949   -1.6159   -1.8134 H       1  LIG11       0.0272
     24 H           2.8591   -2.9951   -0.8290 H       1  LIG11       0.0272
     25 H          -3.2903    0.3103    0.3284 H       1  LIG11       0.0278
     26 H          -2.6547   -0.9459   -0.7362 H       1  LIG11       0.0278
     27 H          -2.8671    0.6879   -1.3690 H       1  LIG11       0.0278
@<TRIPOS>BOND
     1    23    13    1
     2    27    18    1
     3    13    24    1
     4    13    12    1
     5    13    11    1
     6    26    18    1
     7    22    12    1
     8    18    10    1
     9    18    25    1
    10    19     9    1
    11    12    21    1
    12    12    11    1
    13    10     9   ar
    14    10     5   ar
    15     9     8   ar
    16    17     6    1
    17     5     6   ar
    18     5     4   ar
    19     6     1   ar
    20     8    11    1
    21     8     7   ar
    22    11    20    1
    23     4     7   ar
    24     4     3   ar
    25     1    14    1
    26     1     2   ar
    27     3     2   ar
    28     3    16    1
    29     2    15    1
