@<TRIPOS>MOLECULE
1_3C
 40 43 0 0 0
SMALL
GASTEIGER

@<TRIPOS>ATOM
      1 C          -1.3566    4.1443    0.7240 C.ar    1  LIG11      -0.0608
      2 C          -0.0395    4.3661    1.1035 C.ar    1  LIG11      -0.0563
      3 C           0.9264    3.3349    1.0971 C.ar    1  LIG11      -0.0183
      4 C           0.5142    2.0432    0.7136 C.ar    1  LIG11       0.0750
      5 C          -0.8272    1.8039    0.3245 C.ar    1  LIG11       0.0036
      6 C          -1.7467    2.8716    0.3334 C.ar    1  LIG11      -0.0523
      7 N           1.4254    1.0531    0.7335 N.ar    1  LIG11      -0.2510
      8 C           1.0867   -0.2046    0.3660 C.ar    1  LIG11       0.0453
      9 C          -0.2094   -0.5107   -0.0249 C.ar    1  LIG11      -0.0366
     10 C          -1.1847    0.4892   -0.0538 C.ar    1  LIG11      -0.0396
     11 C           2.2620   -1.2386    0.4538 C.3     1  LIG11       0.0014
     12 C           3.6920   -0.7912    0.0262 C.3     1  LIG11      -0.0448
     13 C           2.3923   -2.3269   -0.6533 C.3     1  LIG11      -0.0448
     14 C           3.9194   -2.2304   -0.4737 C.3     1  LIG11      -0.0519
     15 H          -2.0747    4.9598    0.7355 H       1  LIG11       0.0618
     16 H           0.2491    5.3677    1.4164 H       1  LIG11       0.0621
     17 C           2.4346    3.6218    1.5431 C.3     1  LIG11      -0.0138
     18 C          -2.5804    0.1256   -0.4824 C.3     1  LIG11      -0.0390
     19 H          -2.7825    2.7211    0.0411 H       1  LIG11       0.0624
     20 H          -0.4522   -1.5319   -0.3032 H       1  LIG11       0.0638
     21 H           2.2813   -1.6975    1.4553 H       1  LIG11       0.0364
     22 H           4.3493   -0.4653    0.8367 H       1  LIG11       0.0272
     23 H           3.7147   -0.0412   -0.7736 H       1  LIG11       0.0272
     24 H           2.0476   -2.0117   -1.6455 H       1  LIG11       0.0272
     25 H           1.9515   -3.2991   -0.4173 H       1  LIG11       0.0272
     26 H           4.3184   -2.9065    0.2912 H       1  LIG11       0.0266
     27 H           4.5139   -2.3303   -1.3849 H       1  LIG11       0.0266
     28 H          -2.6585   -0.9355   -0.7434 H       1  LIG11       0.0278
     29 H          -2.8694    0.7010   -1.3678 H       1  LIG11       0.0278
     30 H          -3.2899    0.3156    0.3293 H       1  LIG11       0.0278
     31 C           3.5878    3.2631    0.5557 C.3     1  LIG11      -0.0461
     32 C           4.3630    4.4627    1.1319 C.3     1  LIG11      -0.0520
     33 C           2.9954    5.0764    1.4839 C.3     1  LIG11      -0.0461
     34 H           2.6128    3.1786    2.5365 H       1  LIG11       0.0349
     35 H           3.3285    3.3727   -0.5041 H       1  LIG11       0.0271
     36 H           4.0616    2.2899    0.7072 H       1  LIG11       0.0271
     37 H           4.9694    5.0257    0.4183 H       1  LIG11       0.0266
     38 H           4.9754    4.2150    2.0064 H       1  LIG11       0.0266
     39 H           2.5842    5.6986    0.6801 H       1  LIG11       0.0271
     40 H           2.9588    5.6375    2.4214 H       1  LIG11       0.0271
@<TRIPOS>BOND
     1    24    13    1
     2    27    14    1
     3    29    18    1
     4    23    12    1
     5    28    18    1
     6    13    14    1
     7    13    25    1
     8    13    11    1
     9    35    31    1
    10    18    10    1
    11    18    30    1
    12    14    12    1
    13    14    26    1
    14    20     9    1
    15    10     9   ar
    16    10     5   ar
    17     9     8   ar
    18    12    11    1
    19    12    22    1
    20    19     6    1
    21     5     6   ar
    22     5     4   ar
    23     6     1   ar
    24     8    11    1
    25     8     7   ar
    26    37    32    1
    27    11    21    1
    28    31    36    1
    29    31    32    1
    30    31    17    1
    31    39    33    1
    32     4     7   ar
    33     4     3   ar
    34     1    15    1
    35     1     2   ar
    36     3     2   ar
    37     3    17    1
    38     2    16    1
    39    32    33    1
    40    32    38    1
    41    33    17    1
    42    33    40    1
    43    17    34    1
