@<TRIPOS>MOLECULE
1_3D
 46 49 0 0 0
SMALL
GASTEIGER

@<TRIPOS>ATOM
      1 C          -1.3519    4.1483    0.7210 C.ar    1  LIG11      -0.0608
      2 C          -0.0369    4.3815    1.1014 C.ar    1  LIG11      -0.0563
      3 C           0.9063    3.3398    1.1017 C.ar    1  LIG11      -0.0183
      4 C           0.5181    2.0409    0.7174 C.ar    1  LIG11       0.0750
      5 C          -0.8222    1.8006    0.3283 C.ar    1  LIG11       0.0036
      6 C          -1.7410    2.8707    0.3369 C.ar    1  LIG11      -0.0523
      7 N           1.4291    1.0487    0.7315 N.ar    1  LIG11      -0.2510
      8 C           1.0798   -0.2031    0.3605 C.ar    1  LIG11       0.0453
      9 C          -0.2107   -0.5204   -0.0293 C.ar    1  LIG11      -0.0366
     10 C          -1.1817    0.4841   -0.0523 C.ar    1  LIG11      -0.0396
     11 C           2.1493   -1.2721    0.4192 C.3     1  LIG11       0.0014
     12 C           2.5099   -1.6284    1.8739 C.3     1  LIG11      -0.0448
     13 C           3.4705   -0.8358   -0.2410 C.3     1  LIG11      -0.0448
     14 C           4.0321   -1.6046    1.9390 C.3     1  LIG11      -0.0524
     15 C           4.4200   -0.5533    0.9150 C.3     1  LIG11      -0.0524
     16 H          -2.0732    4.9614    0.7233 H       1  LIG11       0.0618
     17 H           0.2350    5.3907    1.3950 H       1  LIG11       0.0621
     18 C          -2.5800    0.1261   -0.4794 C.3     1  LIG11      -0.0390
     19 C           2.3526    3.5798    1.5062 C.3     1  LIG11      -0.0138
     20 H          -2.7769    2.7198    0.0445 H       1  LIG11       0.0624
     21 H          -0.4607   -1.5387   -0.3107 H       1  LIG11       0.0638
     22 H           1.7888   -2.1684   -0.1019 H       1  LIG11       0.0364
     23 H           2.1178   -2.6117    2.1554 H       1  LIG11       0.0272
     24 H           2.1006   -0.9034    2.5882 H       1  LIG11       0.0272
     25 H           3.3748    0.0204   -0.9164 H       1  LIG11       0.0272
     26 H           3.8693   -1.6718   -0.8301 H       1  LIG11       0.0272
     27 H           4.4359   -2.5822    1.6498 H       1  LIG11       0.0265
     28 H           4.4004   -1.3674    2.9412 H       1  LIG11       0.0265
     29 H           5.4695   -0.6300    0.6171 H       1  LIG11       0.0265
     30 H           4.2493    0.4522    1.3164 H       1  LIG11       0.0265
     31 H          -3.2878    0.3201    0.3329 H       1  LIG11       0.0278
     32 H          -2.6632   -0.9348   -0.7391 H       1  LIG11       0.0278
     33 H          -2.8672    0.7020   -1.3650 H       1  LIG11       0.0278
     34 C           3.3169    3.6044    0.3121 C.3     1  LIG11      -0.0461
     35 C           4.5912    4.2720    0.8325 C.3     1  LIG11      -0.0525
     36 C           4.2279    4.9011    2.1756 C.3     1  LIG11      -0.0525
     37 C           2.7059    4.8937    2.2139 C.3     1  LIG11      -0.0461
     38 H           2.6475    2.7696    2.1899 H       1  LIG11       0.0349
     39 H           2.9018    4.1991   -0.5119 H       1  LIG11       0.0271
     40 H           3.5245    2.6057   -0.0843 H       1  LIG11       0.0271
     41 H           4.9409    5.0293    0.1225 H       1  LIG11       0.0265
     42 H           5.3984    3.5423    0.9579 H       1  LIG11       0.0265
     43 H           4.6398    5.9087    2.2857 H       1  LIG11       0.0265
     44 H           4.6264    4.2869    2.9920 H       1  LIG11       0.0265
     45 H           2.3371    5.7693    1.6674 H       1  LIG11       0.0271
     46 H           2.3168    4.9380    3.2358 H       1  LIG11       0.0271
@<TRIPOS>BOND
     1    33    18    1
     2    25    13    1
     3    26    13    1
     4    32    18    1
     5    39    34    1
     6    18    10    1
     7    18    31    1
     8    21     9    1
     9    13    11    1
    10    13    15    1
    11    22    11    1
    12    40    34    1
    13    10     9   ar
    14    10     5   ar
    15     9     8   ar
    16    20     6    1
    17    41    35    1
    18    34    35    1
    19    34    19    1
    20     5     6   ar
    21     5     4   ar
    22     6     1   ar
    23     8    11    1
    24     8     7   ar
    25    11    12    1
    26    29    15    1
    27     4     7   ar
    28     4     3   ar
    29     1    16    1
    30     1     2   ar
    31    35    42    1
    32    35    36    1
    33    15    30    1
    34    15    14    1
    35     2     3   ar
    36     2    17    1
    37     3    19    1
    38    19    38    1
    39    19    37    1
    40    27    14    1
    41    45    37    1
    42    12    14    1
    43    12    23    1
    44    12    24    1
    45    14    28    1
    46    36    37    1
    47    36    43    1
    48    36    44    1
    49    37    46    1
