@<TRIPOS>MOLECULE
2_13B
 39 40 0 0 0
SMALL
GASTEIGER

@<TRIPOS>ATOM
      1 C          -1.3165    4.2003    0.6938 C.ar    1  LIG11       0.1644
      2 C          -0.0059    4.4131    1.0690 C.ar    1  LIG11       0.0161
      3 C           0.8525    3.3154    1.0924 C.ar    1  LIG11       0.1557
      4 C           0.4933    2.0189    0.7309 C.ar    1  LIG11       0.1051
      5 C          -0.8548    1.7858    0.3443 C.ar    1  LIG11       0.0511
      6 C          -1.7663    2.8964    0.4221 C.ar    1  LIG11       0.1718
      7 N           1.4271    1.0440    0.7497 N.ar    1  LIG11      -0.2525
      8 C           1.0912   -0.1983    0.3685 C.ar    1  LIG11       0.0286
      9 C          -0.1679   -0.5357   -0.0631 C.ar    1  LIG11      -0.0397
     10 C          -1.1640    0.4511   -0.0906 C.ar    1  LIG11      -0.0333
     11 C          -2.4986    0.0269   -0.6736 C.3     1  LIG11      -0.0297
     12 C          -2.6689    0.4839   -2.1162 C.3     1  LIG11      -0.0612
     13 N           2.2161    3.5640    1.4880 N.pl3   1  LIG11       0.0587
     14 O           2.9852    3.9869    0.6131 O.2     1  LIG11      -0.1261
     15 O           2.4877    3.4242    2.6887 O.2     1  LIG11      -0.1261
     16 O          -3.1048    2.6660    0.2015 O.3     1  LIG11      -0.4850
     17 O          -2.1179    5.3098    0.6477 O.3     1  LIG11      -0.4914
     18 C          -3.9501    2.9513    1.3362 C.3     1  LIG11       0.0948
     19 C          -3.7980    1.9004    2.4363 C.3     1  LIG11      -0.0281
     20 C          -5.3845    2.9568    0.8137 C.3     1  LIG11      -0.0281
     21 H           0.3422    5.4095    1.3265 H       1  LIG11       0.0679
     22 H           1.8914   -0.9320    0.4071 H       1  LIG11       0.0830
     23 H          -0.3654   -1.5526   -0.3886 H       1  LIG11       0.0636
     24 H          -2.5781   -1.0682   -0.6506 H       1  LIG11       0.0311
     25 H          -3.3301    0.3637   -0.0535 H       1  LIG11       0.0311
     26 H          -3.6347    0.1468   -2.5060 H       1  LIG11       0.0233
     27 H          -1.8829    0.0672   -2.7554 H       1  LIG11       0.0233
     28 H          -2.6296    1.5733   -2.2096 H       1  LIG11       0.0233
     29 H          -3.7472    3.9414    1.7559 H       1  LIG11       0.0727
     30 H          -2.7770    1.8868    2.8308 H       1  LIG11       0.0265
     31 H          -4.0091    0.8945    2.0607 H       1  LIG11       0.0265
     32 H          -4.4784    2.1058    3.2690 H       1  LIG11       0.0265
     33 H          -5.6419    1.9919    0.3627 H       1  LIG11       0.0265
     34 H          -5.5013    3.7120    0.0289 H       1  LIG11       0.0265
     35 H          -6.0996    3.1730    1.6132 H       1  LIG11       0.0265
     36 C          -2.5423    5.5866   -0.6893 C.3     1  LIG11       0.0790
     37 H          -1.7119    5.5174   -1.4015 H       1  LIG11       0.0660
     38 H          -2.9194    6.6136   -0.7112 H       1  LIG11       0.0660
     39 H          -3.3594    4.9249   -0.9900 H       1  LIG11       0.0660
@<TRIPOS>BOND
     1    27    12    1
     2    26    12    1
     3    28    12    1
     4    12    11    1
     5    37    36    1
     6    39    36    1
     7    38    36    1
     8    36    17    1
     9    11    24    1
    10    11    10    1
    11    11    25    1
    12    23     9    1
    13    10     9   ar
    14    10     5   ar
    15     9     8   ar
    16    34    20    1
    17    16     6    1
    18    16    18    1
    19     5     6   ar
    20     5     4   ar
    21    33    20    1
    22     8    22    1
    23     8     7   ar
    24     6     1   ar
    25    14    13    2
    26    17     1    1
    27     1     2   ar
    28     4     7   ar
    29     4     3   ar
    30    20    18    1
    31    20    35    1
    32     2     3   ar
    33     2    21    1
    34     3    13    1
    35    18    29    1
    36    18    19    1
    37    13    15    2
    38    31    19    1
    39    19    30    1
    40    19    32    1
