@<TRIPOS>MOLECULE
2_2B
 31 32 0 0 0
SMALL
GASTEIGER

@<TRIPOS>ATOM
      1 C          -1.3633    4.1555    0.7175 C.ar    1  LIG11      -0.0589
      2 C          -0.0527    4.4009    1.1004 C.ar    1  LIG11      -0.0293
      3 C           0.8590    3.3351    1.0921 C.ar    1  LIG11       0.1520
      4 C           0.5395    2.0307    0.7224 C.ar    1  LIG11       0.1014
      5 C          -0.7960    1.8109    0.3390 C.ar    1  LIG11       0.0026
      6 C          -1.7336    2.8653    0.3381 C.ar    1  LIG11      -0.0524
      7 N           1.4430    1.0220    0.7249 N.ar    1  LIG11      -0.2488
      8 C           1.0801   -0.2347    0.3556 C.ar    1  LIG11       0.0474
      9 C          -0.2239   -0.5116   -0.0329 C.ar    1  LIG11      -0.0393
     10 C          -1.1634    0.5168   -0.0402 C.ar    1  LIG11      -0.0508
     11 C           2.1896   -1.2903    0.3981 C.3     1  LIG11       0.0045
     12 C           2.7439   -1.3725    1.8350 C.3     1  LIG11      -0.0546
     13 C           3.3218   -0.8593   -0.5559 C.3     1  LIG11      -0.0546
     14 N           2.2131    3.6128    1.4929 N.pl3   1  LIG11       0.0585
     15 O           2.9937    3.9952    0.6098 O.2     1  LIG11      -0.1261
     16 O           2.4682    3.5353    2.7031 O.2     1  LIG11      -0.1261
     17 H          -2.0958    4.9594    0.7126 H       1  LIG11       0.0618
     18 H           0.2566    5.3993    1.3998 H       1  LIG11       0.0641
     19 H          -2.7645    2.6815    0.0388 H       1  LIG11       0.0624
     20 H          -0.5377   -1.5052   -0.3322 H       1  LIG11       0.0636
     21 H          -2.1839    0.2959   -0.3452 H       1  LIG11       0.0625
     22 C           1.7357   -2.7053   -0.0146 C.3     1  LIG11      -0.0546
     23 H           3.5401   -2.1221    1.9101 H       1  LIG11       0.0239
     24 H           1.9568   -1.6480    2.5469 H       1  LIG11       0.0239
     25 H           3.1657   -0.4163    2.1662 H       1  LIG11       0.0239
     26 H           2.9562   -0.7632   -1.5851 H       1  LIG11       0.0239
     27 H           4.1381   -1.5909   -0.5579 H       1  LIG11       0.0239
     28 H           3.7523    0.1074   -0.2693 H       1  LIG11       0.0239
     29 H           1.3584   -2.7236   -1.0436 H       1  LIG11       0.0239
     30 H           0.9449   -3.0829    0.6440 H       1  LIG11       0.0239
     31 H           2.5680   -3.4172    0.0375 H       1  LIG11       0.0239
@<TRIPOS>BOND
     1    26    13    1
     2    29    22    1
     3    27    13    1
     4    13    28    1
     5    13    11    1
     6    21    10    1
     7    20     9    1
     8    10     9   ar
     9    10     5   ar
    10     9     8   ar
    11    22    31    1
    12    22    11    1
    13    22    30    1
    14    19     6    1
    15     6     5   ar
    16     6     1   ar
    17     5     4   ar
    18     8    11    1
    19     8     7   ar
    20    11    12    1
    21    15    14    2
    22    17     1    1
    23     1     2   ar
    24     4     7   ar
    25     4     3   ar
    26     3     2   ar
    27     3    14    1
    28     2    18    1
    29    14    16    2
    30    12    23    1
    31    12    25    1
    32    12    24    1
