@<TRIPOS>MOLECULE
2_2C
 32 34 0 0 0
SMALL
GASTEIGER

@<TRIPOS>ATOM
      1 C          -1.3626    4.1529    0.7191 C.ar    1  LIG11      -0.0589
      2 C          -0.0513    4.3995    1.0994 C.ar    1  LIG11      -0.0293
      3 C           0.8615    3.3348    1.0893 C.ar    1  LIG11       0.1520
      4 C           0.5415    2.0301    0.7224 C.ar    1  LIG11       0.1014
      5 C          -0.7961    1.8082    0.3391 C.ar    1  LIG11       0.0026
      6 C          -1.7332    2.8625    0.3397 C.ar    1  LIG11      -0.0524
      7 N           1.4469    1.0244    0.7272 N.ar    1  LIG11      -0.2490
      8 C           1.0728   -0.2245    0.3613 C.ar    1  LIG11       0.0451
      9 C          -0.2253   -0.5109   -0.0371 C.ar    1  LIG11      -0.0395
     10 C          -1.1655    0.5139   -0.0434 C.ar    1  LIG11      -0.0508
     11 C           2.1251   -1.3175    0.3475 C.3     1  LIG11       0.0014
     12 C           2.8995   -1.3529   -0.9712 C.3     1  LIG11      -0.0448
     13 C           4.0054   -0.3183   -0.7988 C.3     1  LIG11      -0.0524
     14 N           2.2173    3.6137    1.4840 N.pl3   1  LIG11       0.0585
     15 O           2.4672    3.5794    2.6972 O.2     1  LIG11      -0.1261
     16 O           3.0053    3.9537    0.5902 O.2     1  LIG11      -0.1261
     17 C           4.3239   -0.2976    0.6946 C.3     1  LIG11      -0.0524
     18 C           3.2404   -1.1303    1.3828 C.3     1  LIG11      -0.0448
     19 H          -2.0955    4.9565    0.7154 H       1  LIG11       0.0618
     20 H           0.2578    5.3983    1.3976 H       1  LIG11       0.0641
     21 H          -2.7645    2.6791    0.0416 H       1  LIG11       0.0624
     22 H          -0.5086   -1.5135   -0.3414 H       1  LIG11       0.0636
     23 H          -2.1850    0.2942   -0.3515 H       1  LIG11       0.0625
     24 H           1.6250   -2.2771    0.5280 H       1  LIG11       0.0364
     25 H           2.2821   -1.1494   -1.8520 H       1  LIG11       0.0272
     26 H           3.3531   -2.3435   -1.1024 H       1  LIG11       0.0272
     27 H           3.6541    0.6699   -1.1181 H       1  LIG11       0.0265
     28 H           4.8859   -0.5610   -1.4019 H       1  LIG11       0.0265
     29 H           4.3276    0.7320    1.0689 H       1  LIG11       0.0265
     30 H           5.3154   -0.7179    0.8948 H       1  LIG11       0.0265
     31 H           2.9014   -0.6742    2.3188 H       1  LIG11       0.0272
     32 H           3.6640   -2.1108    1.6358 H       1  LIG11       0.0272
@<TRIPOS>BOND
     1    25    12    1
     2    28    13    1
     3    27    13    1
     4    26    12    1
     5    12    13    1
     6    12    11    1
     7    13    17    1
     8    23    10    1
     9    22     9    1
    10    10     9   ar
    11    10     5   ar
    12     9     8   ar
    13    21     6    1
    14     5     6   ar
    15     5     4   ar
    16     6     1   ar
    17    11     8    1
    18    11    24    1
    19    11    18    1
    20     8     7   ar
    21    16    14    2
    22    17    30    1
    23    17    29    1
    24    17    18    1
    25    19     1    1
    26     1     2   ar
    27     4     7   ar
    28     4     3   ar
    29     3     2   ar
    30     3    14    1
    31     2    20    1
    32    18    32    1
    33    18    31    1
    34    14    15    2
