@<TRIPOS>MOLECULE
3_11D
 55 58 0 0 0
SMALL
GASTEIGER

@<TRIPOS>ATOM
      1 C          -1.3526    4.1633    0.7171 C.ar    1  LIG11      -0.0608
      2 C          -0.0402    4.3873    1.1001 C.ar    1  LIG11      -0.0563
      3 C           0.8986    3.3369    1.1058 C.ar    1  LIG11      -0.0183
      4 C           0.5124    2.0384    0.7212 C.ar    1  LIG11       0.0755
      5 C          -0.8268    1.8045    0.3362 C.ar    1  LIG11       0.0146
      6 C          -1.7421    2.8855    0.3369 C.ar    1  LIG11      -0.0518
      7 N           1.4197    1.0412    0.7216 N.ar    1  LIG11      -0.2510
      8 C           1.0820   -0.2142    0.3541 C.ar    1  LIG11       0.0459
      9 C          -0.2021   -0.5338   -0.0316 C.ar    1  LIG11      -0.0255
     10 C          -1.1601    0.4818   -0.0446 C.ar    1  LIG11       0.0698
     11 C          -2.5411    0.1108   -0.4389 C.2     1  LIG11       0.3396
     12 O          -3.5522    0.4653    0.1417 O.2     1  LIG11      -0.2449
     13 O          -2.4865   -0.6669   -1.5511 O.3     1  LIG11      -0.4644
     14 C           2.1607   -1.2778    0.4114 C.3     1  LIG11       0.0014
     15 C           2.5463   -1.5829    1.8676 C.3     1  LIG11      -0.0448
     16 C           3.6501   -2.6358    1.9462 C.3     1  LIG11      -0.0525
     17 C           4.8697   -2.2367    1.1207 C.3     1  LIG11      -0.0530
     18 C           4.4942   -1.9306   -0.3263 C.3     1  LIG11      -0.0525
     19 C           3.3968   -0.8715   -0.4083 C.3     1  LIG11      -0.0448
     20 C          -3.7676   -1.0684   -2.0385 C.3     1  LIG11       0.0820
     21 C           2.3262    3.6800    1.5351 C.3     1  LIG11      -0.0138
     22 C           3.3436    3.5237    0.3903 C.3     1  LIG11      -0.0461
     23 C           4.7528    3.9128    0.8345 C.3     1  LIG11      -0.0525
     24 C           5.1815    3.1484    2.0833 C.3     1  LIG11      -0.0530
     25 C           4.1857    3.3354    3.2241 C.3     1  LIG11      -0.0525
     26 C           2.7716    2.9345    2.8067 C.3     1  LIG11      -0.0461
     27 H          -2.0718    4.9782    0.7152 H       1  LIG11       0.0618
     28 H           0.2537    5.3924    1.3961 H       1  LIG11       0.0621
     29 H          -2.7798    2.7436    0.0414 H       1  LIG11       0.0624
     30 H          -0.4618   -1.5507   -0.3074 H       1  LIG11       0.0644
     31 H           1.7631   -2.2015   -0.0324 H       1  LIG11       0.0364
     32 H           1.6690   -1.9348    2.4245 H       1  LIG11       0.0272
     33 H           2.8888   -0.6696    2.3711 H       1  LIG11       0.0272
     34 H           3.9447   -2.7826    2.9914 H       1  LIG11       0.0265
     35 H           3.2634   -3.5968    1.5853 H       1  LIG11       0.0265
     36 H           5.3406   -1.3534    1.5698 H       1  LIG11       0.0265
     37 H           5.6120   -3.0424    1.1464 H       1  LIG11       0.0265
     38 H           5.3800   -1.5858   -0.8715 H       1  LIG11       0.0265
     39 H           4.1532   -2.8496   -0.8185 H       1  LIG11       0.0265
     40 H           3.8015    0.0820   -0.0461 H       1  LIG11       0.0272
     41 H           3.1182   -0.7147   -1.4577 H       1  LIG11       0.0272
     42 H          -4.2907   -1.6711   -1.2894 H       1  LIG11       0.0661
     43 H          -3.6136   -1.6819   -2.9305 H       1  LIG11       0.0661
     44 H          -4.3630   -0.1935   -2.3180 H       1  LIG11       0.0661
     45 H           2.3376    4.7480    1.7999 H       1  LIG11       0.0349
     46 H           3.0475    4.1489   -0.4613 H       1  LIG11       0.0271
     47 H           3.3692    2.4935    0.0211 H       1  LIG11       0.0271
     48 H           5.4612    3.7176    0.0214 H       1  LIG11       0.0265
     49 H           4.7875    4.9906    1.0357 H       1  LIG11       0.0265
     50 H           5.2706    2.0808    1.8465 H       1  LIG11       0.0265
     51 H           6.1731    3.4898    2.4011 H       1  LIG11       0.0265
     52 H           4.4975    2.7368    4.0874 H       1  LIG11       0.0265
     53 H           4.1890    4.3843    3.5451 H       1  LIG11       0.0265
     54 H           2.7526    1.8499    2.6603 H       1  LIG11       0.0271
     55 H           2.0765    3.1481    3.6282 H       1  LIG11       0.0271
@<TRIPOS>BOND
     1    43    20    1
     2    44    20    1
     3    20    13    1
     4    20    42    1
     5    13    11    1
     6    41    19    1
     7    38    18    1
     8    39    18    1
     9    46    22    1
    10    11    10    1
    11    11    12    2
    12    19    18    1
    13    19    40    1
    14    19    14    1
    15    18    17    1
    16    30     9    1
    17    10     9   ar
    18    10     5   ar
    19    31    14    1
    20     9     8   ar
    21    47    22    1
    22    48    23    1
    23    29     6    1
    24     5     6   ar
    25     5     4   ar
    26     6     1   ar
    27     8    14    1
    28     8     7   ar
    29    22    23    1
    30    22    21    1
    31    14    15    1
    32    27     1    1
    33     1     2   ar
    34     4     7   ar
    35     4     3   ar
    36    23    49    1
    37    23    24    1
    38     2     3   ar
    39     2    28    1
    40     3    21    1
    41    17    37    1
    42    17    36    1
    43    17    16    1
    44    21    45    1
    45    21    26    1
    46    35    16    1
    47    50    24    1
    48    15    16    1
    49    15    33    1
    50    15    32    1
    51    16    34    1
    52    24    51    1
    53    24    25    1
    54    54    26    1
    55    26    25    1
    56    26    55    1
    57    25    53    1
    58    25    52    1
