@<TRIPOS>MOLECULE
3_3B
 49 52 0 0 0
SMALL
GASTEIGER

@<TRIPOS>ATOM
      1 C          -1.2884    4.2006    0.7281 C.ar    1  LIG11      -0.0576
      2 C           0.0109    4.3530    1.1723 C.ar    1  LIG11      -0.0595
      3 C           0.8693    3.2692    1.1161 C.ar    1  LIG11      -0.0357
      4 C           0.4525    2.0212    0.6929 C.ar    1  LIG11       0.0724
      5 C          -0.9026    1.7855    0.3029 C.ar    1  LIG11       0.0073
      6 C          -1.7597    2.9624    0.2367 C.ar    1  LIG11      -0.0348
      7 N           1.4263    1.1058    0.7005 N.ar    1  LIG11      -0.2401
      8 C           1.1316   -0.1523    0.3281 C.ar    1  LIG11       0.1485
      9 C          -0.1491   -0.5461    0.0033 C.ar    1  LIG11      -0.0252
     10 C          -1.2022    0.3917    0.0359 C.ar    1  LIG11      -0.0326
     11 C           2.2305   -1.1645    0.3037 C.2     1  LIG11       0.3575
     12 O           2.0624   -2.3375   -0.0002 O.2     1  LIG11      -0.2432
     13 O           3.4144   -0.6013    0.6588 O.3     1  LIG11      -0.4634
     14 H          -1.9334    5.0763    0.7517 H       1  LIG11       0.0621
     15 H           0.3649    5.3154    1.5305 H       1  LIG11       0.0618
     16 H           1.9040    3.4020    1.4278 H       1  LIG11       0.0639
     17 C          -3.1376    2.9777   -0.4048 C.3     1  LIG11      -0.0152
     18 H          -0.3314   -1.5878   -0.2472 H       1  LIG11       0.0644
     19 C          -2.6022   -0.1833   -0.1470 C.3     1  LIG11      -0.0152
     20 C           4.5162   -1.5071    0.6593 C.3     1  LIG11       0.0820
     21 H           5.4105   -0.9536    0.9589 H       1  LIG11       0.0661
     22 H           4.6800   -1.9125   -0.3440 H       1  LIG11       0.0661
     23 H           4.3501   -2.3132    1.3808 H       1  LIG11       0.0661
     24 C          -4.2950    3.1083    0.5891 C.3     1  LIG11      -0.0462
     25 C          -5.5020    3.4830   -0.2700 C.3     1  LIG11      -0.0525
     26 C          -4.9436    4.0388   -1.5807 C.3     1  LIG11      -0.0525
     27 C          -3.4341    4.1299   -1.3820 C.3     1  LIG11      -0.0462
     28 C          -2.8955   -0.5852   -1.6057 C.3     1  LIG11      -0.0462
     29 C          -3.7859   -1.8144   -1.5035 C.3     1  LIG11      -0.0525
     30 C          -3.2087   -2.5597   -0.3144 C.3     1  LIG11      -0.0525
     31 C          -2.9075   -1.4548    0.6911 C.3     1  LIG11      -0.0462
     32 H          -3.2626    2.0876   -1.0184 H       1  LIG11       0.0349
     33 H          -3.3428    0.5317    0.2048 H       1  LIG11       0.0349
     34 H          -4.1064    3.9092    1.3149 H       1  LIG11       0.0271
     35 H          -4.4731    2.1947    1.1639 H       1  LIG11       0.0271
     36 H          -6.1319    4.2176    0.2424 H       1  LIG11       0.0265
     37 H          -6.1225    2.6024   -0.4711 H       1  LIG11       0.0265
     38 H          -5.3797    5.0099   -1.8344 H       1  LIG11       0.0265
     39 H          -5.1739    3.3493   -2.4015 H       1  LIG11       0.0265
     40 H          -3.1912    5.1148   -0.9707 H       1  LIG11       0.0271
     41 H          -2.8883    4.0231   -2.3253 H       1  LIG11       0.0271
     42 H          -1.9774   -0.8458   -2.1466 H       1  LIG11       0.0271
     43 H          -3.3833    0.2139   -2.1715 H       1  LIG11       0.0271
     44 H          -3.7717   -2.4141   -2.4179 H       1  LIG11       0.0265
     45 H          -4.8218   -1.5172   -1.3021 H       1  LIG11       0.0265
     46 H          -2.2844   -3.0741   -0.6015 H       1  LIG11       0.0265
     47 H          -3.9018   -3.3053    0.0858 H       1  LIG11       0.0265
     48 H          -2.1200   -1.7429    1.3941 H       1  LIG11       0.0271
     49 H          -3.8080   -1.2730    1.2931 H       1  LIG11       0.0271
@<TRIPOS>BOND
     1    44    29    1
     2    39    26    1
     3    41    27    1
     4    43    28    1
     5    42    28    1
     6    38    26    1
     7    28    29    1
     8    28    19    1
     9    26    27    1
    10    26    25    1
    11    29    45    1
    12    29    30    1
    13    27    40    1
    14    27    17    1
    15    32    17    1
    16    46    30    1
    17    37    25    1
    18    17     6    1
    19    17    24    1
    20    22    20    1
    21    30    47    1
    22    30    31    1
    23    25    36    1
    24    25    24    1
    25    18     9    1
    26    19    10    1
    27    19    33    1
    28    19    31    1
    29    12    11    2
    30     9    10   ar
    31     9     8   ar
    32    10     5   ar
    33     6     5   ar
    34     6     1   ar
    35     5     4   ar
    36    11     8    1
    37    11    13    1
    38     8     7   ar
    39    24    35    1
    40    24    34    1
    41    13    20    1
    42    20    21    1
    43    20    23    1
    44    31    49    1
    45    31    48    1
    46     4     7   ar
    47     4     3   ar
    48     1    14    1
    49     1     2   ar
    50     3     2   ar
    51     3    16    1
    52     2    15    1
