@<TRIPOS>MOLECULE
3_3D
 39 41 0 0 0
SMALL
GASTEIGER

@<TRIPOS>ATOM
      1 C          -1.3293    4.1657    0.7309 C.ar    1  LIG11      -0.0611
      2 C          -0.0123    4.3749    1.1043 C.ar    1  LIG11      -0.0597
      3 C           0.8818    3.3056    1.0890 C.ar    1  LIG11      -0.0357
      4 C           0.4960    2.0279    0.7090 C.ar    1  LIG11       0.0722
      5 C          -0.8479    1.7894    0.3195 C.ar    1  LIG11       0.0039
      6 C          -1.7432    2.8897    0.3436 C.ar    1  LIG11      -0.0523
      7 N           1.4387    1.0782    0.7355 N.ar    1  LIG11      -0.2401
      8 C           1.0904   -0.1775    0.3739 C.ar    1  LIG11       0.1485
      9 C          -0.1917   -0.5232   -0.0244 C.ar    1  LIG11      -0.0252
     10 C          -1.1937    0.4602   -0.0645 C.ar    1  LIG11      -0.0329
     11 C           2.1420   -1.2398    0.4073 C.2     1  LIG11       0.3575
     12 O           1.9347   -2.4062    0.1017 O.2     1  LIG11      -0.2432
     13 O           3.3322   -0.7297    0.8172 O.3     1  LIG11      -0.4634
     14 H          -2.0380    4.9901    0.7394 H       1  LIG11       0.0618
     15 H           0.3248    5.3622    1.4080 H       1  LIG11       0.0618
     16 H           1.9154    3.4748    1.3847 H       1  LIG11       0.0639
     17 H          -2.7857    2.7794    0.0628 H       1  LIG11       0.0624
     18 H          -0.4039   -1.5530   -0.2992 H       1  LIG11       0.0644
     19 C          -2.5965    0.0519   -0.5088 C.3     1  LIG11      -0.0152
     20 C           4.3896   -1.6852    0.8746 C.3     1  LIG11       0.0820
     21 H           4.1526   -2.4772    1.5920 H       1  LIG11       0.0661
     22 H           5.2937   -1.1714    1.2128 H       1  LIG11       0.0661
     23 H           4.5812   -2.1057   -0.1177 H       1  LIG11       0.0661
     24 C          -3.2380   -0.9418    0.4781 C.3     1  LIG11      -0.0462
     25 C          -4.6457   -1.3387    0.0355 C.3     1  LIG11      -0.0525
     26 C          -4.6560   -1.8857   -1.3890 C.3     1  LIG11      -0.0530
     27 C          -4.0215   -0.9077   -2.3737 C.3     1  LIG11      -0.0525
     28 C          -2.6097   -0.5118   -1.9434 C.3     1  LIG11      -0.0462
     29 H          -3.2489    0.9288   -0.5282 H       1  LIG11       0.0349
     30 H          -3.2853   -0.4976    1.4802 H       1  LIG11       0.0271
     31 H          -2.6285   -1.8498    0.5672 H       1  LIG11       0.0271
     32 H          -5.0485   -2.0918    0.7222 H       1  LIG11       0.0265
     33 H          -5.3070   -0.4655    0.0963 H       1  LIG11       0.0265
     34 H          -4.1108   -2.8372   -1.4179 H       1  LIG11       0.0265
     35 H          -5.6866   -2.0988   -1.6941 H       1  LIG11       0.0265
     36 H          -3.9889   -1.3591   -3.3717 H       1  LIG11       0.0265
     37 H          -4.6458   -0.0090   -2.4501 H       1  LIG11       0.0265
     38 H          -1.9605   -1.3922   -2.0248 H       1  LIG11       0.0271
     39 H          -2.2132    0.2348   -2.6427 H       1  LIG11       0.0271
@<TRIPOS>BOND
     1    36    27    1
     2    39    28    1
     3    37    27    1
     4    27    28    1
     5    27    26    1
     6    38    28    1
     7    28    19    1
     8    35    26    1
     9    34    26    1
    10    26    25    1
    11    29    19    1
    12    19    10    1
    13    19    24    1
    14    18     9    1
    15    23    20    1
    16    10     9   ar
    17    10     5   ar
    18     9     8   ar
    19    25    33    1
    20    25    24    1
    21    25    32    1
    22    17     6    1
    23    12    11    2
    24     5     6   ar
    25     5     4   ar
    26     6     1   ar
    27     8    11    1
    28     8     7   ar
    29    11    13    1
    30    24    31    1
    31    24    30    1
    32     4     7   ar
    33     4     3   ar
    34     1    14    1
    35     1     2   ar
    36    13    20    1
    37    20    22    1
    38    20    21    1
    39     3     2   ar
    40     3    16    1
    41     2    15    1
