@<TRIPOS>MOLECULE
4_4D
 47 51 0 0 0
SMALL
GASTEIGER

@<TRIPOS>ATOM
      1 C          -1.3343    4.1752    0.7061 C.ar    1  LIG11      -0.0611
      2 C          -0.0212    4.3772    1.1036 C.ar    1  LIG11      -0.0597
      3 C           0.8729    3.3047    1.1034 C.ar    1  LIG11      -0.0357
      4 C           0.4895    2.0256    0.7232 C.ar    1  LIG11       0.0720
      5 C          -0.8455    1.8016    0.3437 C.ar    1  LIG11       0.0125
      6 C          -1.7457    2.8998    0.3236 C.ar    1  LIG11      -0.0518
      7 N           1.4206    1.0562    0.7303 N.ar    1  LIG11      -0.2510
      8 C           1.1054   -0.2009    0.3379 C.ar    1  LIG11       0.0489
      9 C          -0.1878   -0.5227   -0.0413 C.ar    1  LIG11      -0.0271
     10 C          -1.1652    0.4742   -0.0135 C.ar    1  LIG11       0.0488
     11 C          -2.5347    0.0460   -0.3726 C.2     1  LIG11       0.2581
     12 O          -2.7428   -0.5614   -1.4178 O.2     1  LIG11      -0.2689
     13 N          -3.5120    0.3206    0.5736 N.am    1  LIG11      -0.2495
     14 N          -4.8423   -0.0774    0.3334 N.3     1  LIG11      -0.2541
     15 C           2.2200   -1.2498    0.3381 C.3     1  LIG11       0.0137
     16 C           2.4180   -1.8403   -1.0857 C.3     1  LIG11      -0.0391
     17 C           3.5248   -2.9096   -1.0876 C.3     1  LIG11      -0.0397
     18 C           3.1422   -4.0366   -0.1139 C.3     1  LIG11      -0.0473
     19 C           2.9874   -3.4759    1.3095 C.3     1  LIG11      -0.0397
     20 C           1.8793   -2.4079    1.3163 C.3     1  LIG11      -0.0391
     21 C           4.8473   -2.2741   -0.6340 C.3     1  LIG11      -0.0473
     22 C           4.6951   -1.7056    0.7846 C.3     1  LIG11      -0.0397
     23 C           4.3128   -2.8371    1.7503 C.3     1  LIG11      -0.0473
     24 C           3.5840   -0.6424    0.7868 C.3     1  LIG11      -0.0391
     25 H          -2.0348    5.0065    0.6846 H       1  LIG11       0.0618
     26 H           0.3172    5.3660    1.4023 H       1  LIG11       0.0618
     27 H           1.9057    3.4734    1.4019 H       1  LIG11       0.0639
     28 H          -2.7740    2.7763   -0.0110 H       1  LIG11       0.0624
     29 H          -0.4515   -1.5305   -0.3480 H       1  LIG11       0.0643
     30 H          -3.2777    0.7567    1.4644 H       1  LIG11       0.1690
     31 H          -5.0485    0.1457   -0.6488 H       1  LIG11       0.1405
     32 H          -4.8581   -1.1032    0.3390 H       1  LIG11       0.1405
     33 H           2.6730   -1.0412   -1.7947 H       1  LIG11       0.0277
     34 H           1.4898   -2.2943   -1.4553 H       1  LIG11       0.0277
     35 H           3.6398   -3.3182   -2.0978 H       1  LIG11       0.0301
     36 H           3.9119   -4.8181   -0.1260 H       1  LIG11       0.0271
     37 H           2.2053   -4.5081   -0.4353 H       1  LIG11       0.0271
     38 H           2.7219   -4.2859    1.9981 H       1  LIG11       0.0301
     39 H           1.7472   -2.0171    2.3342 H       1  LIG11       0.0277
     40 H           0.9288   -2.8843    1.0443 H       1  LIG11       0.0277
     41 H           5.1385   -1.4769   -1.3289 H       1  LIG11       0.0271
     42 H           5.6492   -3.0223   -0.6539 H       1  LIG11       0.0271
     43 H           5.6402   -1.2520    1.1036 H       1  LIG11       0.0301
     44 H           4.2194   -2.4448    2.7704 H       1  LIG11       0.0271
     45 H           5.1055   -3.5950    1.7722 H       1  LIG11       0.0271
     46 H           3.4989   -0.2142    1.7948 H       1  LIG11       0.0277
     47 H           3.8729    0.1817    0.1203 H       1  LIG11       0.0277
@<TRIPOS>BOND
     1    35    17    1
     2    33    16    1
     3    34    16    1
     4    12    11    2
     5    41    21    1
     6    17    16    1
     7    17    21    1
     8    17    18    1
     9    16    15    1
    10    42    21    1
    11    31    14    1
    12    21    22    1
    13    37    18    1
    14    11    10    1
    15    11    13   am
    16    29     9    1
    17    36    18    1
    18    18    19    1
    19     9    10   ar
    20     9     8   ar
    21    10     5   ar
    22    28     6    1
    23    47    24    1
    24     6     5   ar
    25     6     1   ar
    26    14    32    1
    27    14    13    1
    28     8    15    1
    29     8     7   ar
    30    15    24    1
    31    15    20    1
    32     5     4   ar
    33    13    30    1
    34    25     1    1
    35     1     2   ar
    36     4     7   ar
    37     4     3   ar
    38    22    24    1
    39    22    43    1
    40    22    23    1
    41    24    46    1
    42    40    20    1
    43     3     2   ar
    44     3    27    1
    45     2    26    1
    46    19    20    1
    47    19    23    1
    48    19    38    1
    49    20    39    1
    50    23    45    1
    51    23    44    1
