@<TRIPOS>MOLECULE
4_5A
 26 27 0 0 0
SMALL
GASTEIGER

@<TRIPOS>ATOM
      1 C          -1.3335    4.1635    0.7216 C.ar    1  LIG11      -0.0611
      2 C          -0.0169    4.3757    1.0999 C.ar    1  LIG11      -0.0597
      3 C           0.8816    3.3084    1.0936 C.ar    1  LIG11      -0.0357
      4 C           0.5007    2.0279    0.7175 C.ar    1  LIG11       0.0712
      5 C          -0.8414    1.7930    0.3295 C.ar    1  LIG11       0.0040
      6 C          -1.7441    2.8858    0.3402 C.ar    1  LIG11      -0.0523
      7 N           1.4375    1.0675    0.7349 N.ar    1  LIG11      -0.2550
      8 C           1.0825   -0.1770    0.3642 C.ar    1  LIG11       0.0285
      9 C          -0.1928   -0.5215   -0.0330 C.ar    1  LIG11      -0.0394
     10 C          -1.1848    0.4676   -0.0515 C.ar    1  LIG11      -0.0280
     11 C          -2.5677    0.0600   -0.5128 C.3     1  LIG11       0.0510
     12 C          -2.6941   -0.0914   -2.0179 C.2     1  LIG11       0.2306
     13 O          -3.1394   -1.1142   -2.5391 O.2     1  LIG11      -0.2742
     14 N          -2.3310    1.0300   -2.7552 N.am    1  LIG11      -0.2533
     15 N          -2.3519    0.9559   -4.1676 N.3     1  LIG11      -0.2544
     16 H          -2.0421    4.9882    0.7249 H       1  LIG11       0.0618
     17 H           0.3174    5.3651    1.4008 H       1  LIG11       0.0618
     18 H           1.9141    3.4804    1.3905 H       1  LIG11       0.0639
     19 H          -2.7849    2.7644    0.0542 H       1  LIG11       0.0624
     20 H           1.8795   -0.9146    0.3941 H       1  LIG11       0.0830
     21 H          -0.4067   -1.5461   -0.3241 H       1  LIG11       0.0636
     22 H          -2.8131   -0.9082   -0.0558 H       1  LIG11       0.0408
     23 H          -1.7466    1.7472   -2.3262 H       1  LIG11       0.1687
     24 H          -2.1637   -0.0237   -4.4209 H       1  LIG11       0.1405
     25 H          -3.3233    1.0894   -4.4658 H       1  LIG11       0.1405
     26 H          -3.3474    0.7430   -0.1647 H       1  LIG11       0.0408
@<TRIPOS>BOND
     1    25    15    1
     2    24    15    1
     3    15    14    1
     4    14    23    1
     5    14    12   am
     6    13    12    2
     7    12    11    1
     8    11    26    1
     9    11    22    1
    10    11    10    1
    11    21     9    1
    12    10     9   ar
    13    10     5   ar
    14     9     8   ar
    15    19     6    1
    16     5     6   ar
    17     5     4   ar
    18     6     1   ar
    19     8    20    1
    20     8     7   ar
    21     4     7   ar
    22     4     3   ar
    23     1    16    1
    24     1     2   ar
    25     3     2   ar
    26     3    18    1
    27     2    17    1
