@<TRIPOS>MOLECULE
4_5C
 42 44 0 0 0
SMALL
GASTEIGER

@<TRIPOS>ATOM
      1 C          -1.3362    4.1632    0.7208 C.ar    1  LIG11      -0.0611
      2 C          -0.0204    4.3756    1.1032 C.ar    1  LIG11      -0.0597
      3 C           0.8802    3.3094    1.0948 C.ar    1  LIG11      -0.0357
      4 C           0.5007    2.0294    0.7148 C.ar    1  LIG11       0.0716
      5 C          -0.8382    1.7972    0.3285 C.ar    1  LIG11       0.0040
      6 C          -1.7436    2.8864    0.3352 C.ar    1  LIG11      -0.0523
      7 N           1.4330    1.0639    0.7342 N.ar    1  LIG11      -0.2513
      8 C           1.0948   -0.1899    0.3600 C.ar    1  LIG11       0.0453
      9 C          -0.1960   -0.5185   -0.0307 C.ar    1  LIG11      -0.0359
     10 C          -1.1855    0.4742   -0.0441 C.ar    1  LIG11      -0.0277
     11 C          -2.5923    0.0842   -0.4470 C.3     1  LIG11       0.0510
     12 C          -3.6120    0.1526    0.6763 C.2     1  LIG11       0.2306
     13 O          -4.7229    0.6606    0.5205 O.2     1  LIG11      -0.2742
     14 N          -3.2251   -0.4582    1.8620 N.am    1  LIG11      -0.2533
     15 N          -4.0985   -0.4404    2.9706 N.3     1  LIG11      -0.2544
     16 C           2.1835   -1.2457    0.3840 C.3     1  LIG11       0.0014
     17 C           2.7226   -1.4497    1.8091 C.3     1  LIG11      -0.0448
     18 C           3.8399   -2.4907    1.8402 C.3     1  LIG11      -0.0525
     19 C           4.9623   -2.1410    0.8673 C.3     1  LIG11      -0.0530
     20 C           4.4354   -1.9321   -0.5494 C.3     1  LIG11      -0.0525
     21 C           3.3202   -0.8891   -0.5876 C.3     1  LIG11      -0.0448
     22 H          -2.0465    4.9862    0.7198 H       1  LIG11       0.0618
     23 H           0.3117    5.3650    1.4058 H       1  LIG11       0.0618
     24 H           1.9121    3.4817    1.3928 H       1  LIG11       0.0639
     25 H          -2.7816    2.7588    0.0358 H       1  LIG11       0.0624
     26 H          -0.4295   -1.5385   -0.3238 H       1  LIG11       0.0639
     27 H          -2.6152   -0.9384   -0.8437 H       1  LIG11       0.0408
     28 H          -2.9212    0.7351   -1.2661 H       1  LIG11       0.0408
     29 H          -2.2639   -0.7662    2.0016 H       1  LIG11       0.1687
     30 H          -5.0488   -0.5830    2.6042 H       1  LIG11       0.1405
     31 H          -4.1284    0.5221    3.3232 H       1  LIG11       0.1405
     32 H           1.7521   -2.2007    0.0528 H       1  LIG11       0.0364
     33 H           1.9117   -1.7667    2.4766 H       1  LIG11       0.0272
     34 H           3.1066   -0.5036    2.2127 H       1  LIG11       0.0272
     35 H           4.2436   -2.5673    2.8561 H       1  LIG11       0.0265
     36 H           3.4286   -3.4751    1.5849 H       1  LIG11       0.0265
     37 H           5.4673   -1.2281    1.2066 H       1  LIG11       0.0265
     38 H           5.7124   -2.9398    0.8675 H       1  LIG11       0.0265
     39 H           5.2556   -1.6182   -1.2049 H       1  LIG11       0.0265
     40 H           4.0584   -2.8840   -0.9431 H       1  LIG11       0.0265
     41 H           3.7431    0.0931   -0.3389 H       1  LIG11       0.0272
     42 H           2.9307   -0.8106   -1.6102 H       1  LIG11       0.0272
@<TRIPOS>BOND
     1    42    21    1
     2    28    11    1
     3    39    20    1
     4    40    20    1
     5    27    11    1
     6    21    20    1
     7    21    41    1
     8    21    16    1
     9    20    19    1
    10    11    10    1
    11    11    12    1
    12    26     9    1
    13    10     9   ar
    14    10     5   ar
    15     9     8   ar
    16    25     6    1
    17    32    16    1
    18     5     6   ar
    19     5     4   ar
    20     6     1   ar
    21     8    16    1
    22     8     7   ar
    23    16    17    1
    24    13    12    2
    25    12    14   am
    26     4     7   ar
    27     4     3   ar
    28    22     1    1
    29     1     2   ar
    30    19    38    1
    31    19    37    1
    32    19    18    1
    33     3     2   ar
    34     3    24    1
    35     2    23    1
    36    36    18    1
    37    17    18    1
    38    17    34    1
    39    17    33    1
    40    18    35    1
    41    14    29    1
    42    14    15    1
    43    30    15    1
    44    15    31    1
