@<TRIPOS>MOLECULE
4_7A
 50 53 0 0 0
SMALL
USER_CHARGES

@<TRIPOS>ATOM
      1 C          -0.6980    1.8660    0.5020 C.ar    1  LIG11       0.0039
      2 C          -1.6000    2.9670    0.5680 C.ar    1  LIG11      -0.0523
      3 C          -1.1910    4.2370    1.0160 C.ar    1  LIG11      -0.0611
      4 C           0.1350    4.4490    1.4190 C.ar    1  LIG11      -0.0597
      5 C           1.0510    3.3860    1.3800 C.ar    1  LIG11      -0.0357
      6 C           0.6400    2.1130    0.9350 C.ar    1  LIG11       0.0721
      7 N           1.5510    1.1120    0.9380 N.ar    1  LIG11      -0.2421
      8 C           1.2790   -0.1600    0.5640 C.ar    1  LIG11       0.1261
      9 C          -0.0380   -0.4590    0.1430 C.ar    1  LIG11      -0.0271
     10 C          -1.0420    0.5440    0.0540 C.ar    1  LIG11      -0.0329
     11 C           2.3230   -1.1200    0.6020 C.2     1  LIG11       0.2599
     12 N           3.5660   -0.8130    1.0270 N.am    1  LIG11      -0.3241
     13 O           2.1400   -2.3020    0.2300 O.2     1  LIG11      -0.2687
     14 C          -2.4250    0.1880   -0.4720 C.3     1  LIG11      -0.0147
     15 C          -3.4270    0.0320    0.7190 C.3     1  LIG11      -0.0433
     16 C          -2.4800   -0.9790   -1.5190 C.3     1  LIG11      -0.0433
     17 C          -3.7890   -1.1760   -2.3800 C.3     1  LIG11      -0.0405
     18 C          -4.9750    0.0920    0.4380 C.3     1  LIG11      -0.0405
     19 C          -5.7180   -1.2860    0.3570 C.3     1  LIG11      -0.0502
     20 C          -5.0290   -2.4610   -0.3810 C.3     1  LIG11      -0.0526
     21 C          -4.7900   -2.2870   -1.9010 C.3     1  LIG11      -0.0502
     22 C          -5.4340    1.1630   -0.6120 C.3     1  LIG11      -0.0502
     23 C          -5.6660    0.7280   -2.0850 C.3     1  LIG11      -0.0526
     24 C          -4.4790    0.1350   -2.8960 C.3     1  LIG11      -0.0502
     25 H          -2.6380    2.8320    0.2650 H       1  LIG11       0.0624
     26 H          -1.9050    5.0610    1.0500 H       1  LIG11       0.0618
     27 H           0.4530    5.4340    1.7610 H       1  LIG11       0.0618
     28 H           2.0820    3.5500    1.6950 H       1  LIG11       0.0639
     29 H          -0.2860   -1.4880   -0.1180 H       1  LIG11       0.0643
     30 H           3.9920    0.0620    0.7550 H       1  LIG11       0.1453
     31 H           4.0720   -1.4570    1.6180 H       1  LIG11       0.1453
     32 H          -2.7170    1.0510   -1.0710 H       1  LIG11       0.0349
     33 H          -3.2520   -0.9770    1.0920 H       1  LIG11       0.0274
     34 H          -3.2270    0.8920    1.3580 H       1  LIG11       0.0274
     35 H          -1.7040   -0.7330   -2.2440 H       1  LIG11       0.0274
     36 H          -2.3990   -1.8870   -0.9220 H       1  LIG11       0.0274
     37 H          -3.3690   -1.6140   -3.2860 H       1  LIG11       0.0301
     38 H          -5.3540    0.4980    1.3760 H       1  LIG11       0.0301
     39 H          -5.8010   -1.6240    1.3900 H       1  LIG11       0.0268
     40 H          -6.6180   -1.0890   -0.2250 H       1  LIG11       0.0268
     41 H          -4.0340   -2.5290    0.0580 H       1  LIG11       0.0265
     42 H          -5.7210   -3.2980   -0.2950 H       1  LIG11       0.0265
     43 H          -4.3410   -3.2290   -2.2160 H       1  LIG11       0.0268
     44 H          -5.7600   -1.9860   -2.2970 H       1  LIG11       0.0268
     45 H          -6.4160    1.4900   -0.2670 H       1  LIG11       0.0268
     46 H          -4.6110    1.8750   -0.6650 H       1  LIG11       0.0268
     47 H          -6.3900   -0.0850   -2.0210 H       1  LIG11       0.0265
     48 H          -5.9260    1.6480   -2.6070 H       1  LIG11       0.0265
     49 H          -4.9130   -0.1360   -3.8590 H       1  LIG11       0.0268
     50 H          -3.7040    0.9000   -2.8450 H       1  LIG11       0.0268
@<TRIPOS>BOND
     1     1     2   ar
     2     1     6   ar
     3     1    10   ar
     4     2     3   ar
     5     3     4   ar
     6     4     5   ar
     7     5     6   ar
     8     6     7   ar
     9     7     8   ar
    10     8     9   ar
    11     9    10   ar
    12     8    11    1
    13    11    12   am
    14    11    13    2
    15    10    14    1
    16    14    15    1
    17    14    16    1
    18    16    17    1
    19    15    18    1
    20    18    19    1
    21    19    20    1
    22    20    21    1
    23    17    21    1
    24    18    22    1
    25    22    23    1
    26    23    24    1
    27    24    17    1
    28     2    25    1
    29     3    26    1
    30     4    27    1
    31     5    28    1
    32     9    29    1
    33    12    30    1
    34    12    31    1
    35    14    32    1
    36    15    33    1
    37    15    34    1
    38    16    35    1
    39    16    36    1
    40    17    37    1
    41    18    38    1
    42    19    39    1
    43    19    40    1
    44    20    41    1
    45    20    42    1
    46    21    43    1
    47    21    44    1
    48    22    45    1
    49    22    46    1
    50    23    47    1
    51    23    48    1
    52    24    49    1
    53    24    50    1
