@<TRIPOS>MOLECULE
4_7H
 60 64 0 0 0
SMALL
USER_CHARGES

@<TRIPOS>ATOM
      1 C          -0.9500    1.8890    0.3040 C.ar    1  LIG11       0.0039
      2 C          -1.9230    2.9210    0.4080 C.ar    1  LIG11      -0.0523
      3 C          -1.5920    4.2010    0.8830 C.ar    1  LIG11      -0.0611
      4 C          -0.2770    4.4850    1.2830 C.ar    1  LIG11      -0.0597
      5 C           0.7050    3.4830    1.2160 C.ar    1  LIG11      -0.0357
      6 C           0.3720    2.1980    0.7430 C.ar    1  LIG11       0.0721
      7 N           1.3370    1.2430    0.7440 N.ar    1  LIG11      -0.2421
      8 C           1.1220   -0.0390    0.3660 C.ar    1  LIG11       0.1266
      9 C          -0.1670   -0.3800   -0.1000 C.ar    1  LIG11      -0.0271
     10 C          -1.2170    0.5700   -0.1860 C.ar    1  LIG11      -0.0329
     11 C           2.1580   -1.0020    0.4780 C.2     1  LIG11       0.2666
     12 N           3.4610   -0.6420    0.7020 N.am    1  LIG11      -0.2802
     13 O           1.8440   -2.2170    0.4250 O.2     1  LIG11      -0.2682
     14 C          -2.5640    0.1420   -0.7380 C.3     1  LIG11      -0.0147
     15 C          -3.4390   -0.4150    0.4310 C.3     1  LIG11      -0.0433
     16 C          -2.4790   -0.7380   -2.0310 C.3     1  LIG11      -0.0433
     17 C          -3.7750   -1.0290   -2.8660 C.3     1  LIG11      -0.0405
     18 C          -4.9780   -0.6210    0.2060 C.3     1  LIG11      -0.0405
     19 C          -5.4350   -2.0800   -0.1370 C.3     1  LIG11      -0.0502
     20 C          -4.5810   -2.9110   -1.1280 C.3     1  LIG11      -0.0526
     21 C          -4.4500   -2.4170   -2.5940 C.3     1  LIG11      -0.0502
     22 C          -5.7080    0.5110   -0.5950 C.3     1  LIG11      -0.0502
     23 C          -5.9760    0.3020   -2.1090 C.3     1  LIG11      -0.0526
     24 C          -4.7600    0.1730   -3.0610 C.3     1  LIG11      -0.0502
     25 C           4.5200   -1.5010    0.8480 C.ar    1  LIG11       0.0337
     26 C           4.6920   -2.6650    0.0580 C.ar    1  LIG11      -0.0405
     27 C           5.4750   -1.2190    1.8490 C.ar    1  LIG11      -0.0405
     28 C           6.5470   -2.1020    2.0890 C.ar    1  LIG11      -0.0600
     29 C           6.6710   -3.2820    1.3330 C.ar    1  LIG11      -0.0616
     30 C           5.7410   -3.5640    0.3180 C.ar    1  LIG11      -0.0600
     31 H          -2.9550    2.7250    0.1160 H       1  LIG11       0.0624
     32 H          -2.3560    4.9760    0.9410 H       1  LIG11       0.0618
     33 H          -0.0200    5.4800    1.6440 H       1  LIG11       0.0618
     34 H           1.7250    3.7030    1.5300 H       1  LIG11       0.0639
     35 H          -0.3590   -1.4100   -0.4030 H       1  LIG11       0.0643
     36 H           3.6590    0.3470    0.7660 H       1  LIG11       0.1552
     37 H          -3.0590    1.0370   -1.1170 H       1  LIG11       0.0349
     38 H          -3.0490   -1.4160    0.6120 H       1  LIG11       0.0274
     39 H          -3.3720    0.3450    1.2100 H       1  LIG11       0.0274
     40 H          -1.8400   -0.1680   -2.7060 H       1  LIG11       0.0274
     41 H          -2.1580   -1.7170   -1.6740 H       1  LIG11       0.0274
     42 H          -3.3760   -1.1450   -3.8740 H       1  LIG11       0.0301
     43 H          -5.3670   -0.4890    1.2160 H       1  LIG11       0.0301
     44 H          -5.3710   -2.6250    0.8040 H       1  LIG11       0.0268
     45 H          -6.3980   -1.9640   -0.6350 H       1  LIG11       0.0268
     46 H          -3.5680   -2.8660   -0.7270 H       1  LIG11       0.0265
     47 H          -5.0960   -3.8690   -1.2030 H       1  LIG11       0.0265
     48 H          -3.7940   -3.1460   -3.0700 H       1  LIG11       0.0268
     49 H          -5.4780   -2.3020   -2.9370 H       1  LIG11       0.0268
     50 H          -6.7000    0.5780   -0.1480 H       1  LIG11       0.0268
     51 H          -5.0320    1.3660   -0.5520 H       1  LIG11       0.0268
     52 H          -6.4840   -0.6600   -2.1730 H       1  LIG11       0.0265
     53 H          -6.4860    1.2100   -2.4300 H       1  LIG11       0.0265
     54 H          -5.1990    0.0210   -4.0470 H       1  LIG11       0.0268
     55 H          -4.1610    1.0630   -2.8630 H       1  LIG11       0.0268
     56 H           4.0060   -2.8720   -0.7630 H       1  LIG11       0.0636
     57 H           5.3850   -0.3100    2.4440 H       1  LIG11       0.0636
     58 H           7.2820   -1.8720    2.8600 H       1  LIG11       0.0618
     59 H           7.4870   -3.9770    1.5340 H       1  LIG11       0.0618
     60 H           5.8330   -4.4790   -0.2670 H       1  LIG11       0.0618
@<TRIPOS>BOND
     1     1     2   ar
     2     1     6   ar
     3     1    10   ar
     4     2     3   ar
     5     3     4   ar
     6     4     5   ar
     7     5     6   ar
     8     6     7   ar
     9     7     8   ar
    10     8     9   ar
    11     9    10   ar
    12     8    11    1
    13    11    12   am
    14    11    13    2
    15    10    14    1
    16    14    15    1
    17    14    16    1
    18    16    17    1
    19    15    18    1
    20    18    19    1
    21    19    20    1
    22    20    21    1
    23    17    21    1
    24    18    22    1
    25    22    23    1
    26    23    24    1
    27    24    17    1
    28    12    25    1
    29    26    25   ar
    30    25    27   ar
    31    26    30   ar
    32    27    28   ar
    33    28    29   ar
    34    29    30   ar
    35     2    31    1
    36     3    32    1
    37     4    33    1
    38     5    34    1
    39     9    35    1
    40    12    36    1
    41    14    37    1
    42    15    38    1
    43    15    39    1
    44    16    40    1
    45    16    41    1
    46    17    42    1
    47    18    43    1
    48    19    44    1
    49    19    45    1
    50    20    46    1
    51    20    47    1
    52    21    48    1
    53    21    49    1
    54    22    50    1
    55    22    51    1
    56    23    52    1
    57    23    53    1
    58    24    54    1
    59    24    55    1
    60    26    56    1
    61    27    57    1
    62    28    58    1
    63    29    59    1
    64    30    60    1
