@<TRIPOS>MOLECULE
M17
 62 61 0 0 0
SMALL
GASTEIGER
Energy = 0

@<TRIPOS>ATOM
      1 C          -2.8387   -7.5120    4.9260 C.3     1  LIG11       0.0348
      2 H          -3.5190   -7.0260    4.2077 H       1  LIG11       0.0484
      3 C          -3.6481   -7.9728    6.1642 C.3     1  LIG11       0.0597
      4 O          -4.0237   -6.8201    6.9390 O.3     1  LIG11      -0.3935
      5 H          -2.0992   -6.7654    5.2617 H       1  LIG11       0.0484
      6 H          -3.0198   -8.6489    6.7708 H       1  LIG11       0.0573
      7 H          -4.5511   -8.5199    5.8356 H       1  LIG11       0.0573
      8 H          -3.2813   -6.2584    7.1352 H       1  LIG11       0.2095
      9 H          -1.7002  -10.3246    1.9892 H       1  LIG11       0.0358
     10 H          -2.8941  -11.4792    2.6258 H       1  LIG11       0.0358
     11 H          -1.5278  -11.4787    4.8403 H       1  LIG11       0.0273
     12 H          -0.2821  -10.5662    3.9736 H       1  LIG11       0.0273
     13 H          -0.5280  -12.6275    2.2012 H       1  LIG11       0.0307
     14 H          -1.0744  -13.4672    3.6582 H       1  LIG11       0.0307
     15 H           1.2818  -12.2970    4.6355 H       1  LIG11       0.0569
     16 H           2.8367  -13.7341    3.6145 H       1  LIG11       0.0572
     17 H           0.7823  -14.0482    1.3540 H       1  LIG11       0.0350
     18 H           1.2648  -15.5123    2.2085 H       1  LIG11       0.0350
     19 H           3.0837  -13.5318    0.6043 H       1  LIG11       0.0572
     20 H           4.5168  -15.3397    0.1771 H       1  LIG11       0.0572
     21 H           2.4911  -17.1349    1.7192 H       1  LIG11       0.0350
     22 H           4.1582  -17.0058    2.2662 H       1  LIG11       0.0350
     23 H           3.8421  -17.4803   -0.7412 H       1  LIG11       0.0572
     24 H           4.5221  -19.7100   -0.5006 H       1  LIG11       0.0572
     25 H           3.3960  -20.2594    2.1149 H       1  LIG11       0.0350
     26 H           4.8436  -19.2770    2.4501 H       1  LIG11       0.0350
     27 H           4.6854  -22.1282    1.3955 H       1  LIG11       0.0572
     28 H           7.0510  -22.1407    1.3227 H       1  LIG11       0.0569
     29 H           6.8785  -19.0284    1.6494 H       1  LIG11       0.0307
     30 C          -2.8968   -9.5222    3.5445 C.2     1  LIG11       0.2131
     31 C          -2.1770  -10.6931    2.9124 C.3     1  LIG11       0.0242
     32 C          -1.0936  -11.3025    3.8467 C.3     1  LIG11      -0.0414
     33 C          -0.4711  -12.6160    3.3008 C.3     1  LIG11      -0.0343
     34 C           0.9529  -12.8443    3.7498 C.2     1  LIG11      -0.0876
     35 C           1.8437  -13.6605    3.1655 C.2     1  LIG11      -0.0842
     36 C           1.5989  -14.5051    1.9369 C.3     1  LIG11      -0.0165
     37 C           2.8441  -14.4865    1.0801 C.2     1  LIG11      -0.0839
     38 C           3.6649  -15.5203    0.8388 C.2     1  LIG11      -0.0839
     39 C           3.5148  -16.9243    1.3799 C.3     1  LIG11      -0.0165
     40 C           3.8839  -17.8852    0.2729 C.2     1  LIG11      -0.0839
     41 C           4.2599  -19.1652    0.4100 C.2     1  LIG11      -0.0839
     42 C           4.3655  -19.9361    1.7073 C.3     1  LIG11      -0.0165
     43 C           5.2091  -21.1752    1.5096 C.2     1  LIG11      -0.0842
     44 C           6.5498  -21.1804    1.4682 C.2     1  LIG11      -0.0876
     45 C           7.4425  -19.9689    1.6139 C.3     1  LIG11      -0.0348
     46 C           8.2888  -20.1014    2.9060 C.3     1  LIG11      -0.0496
     47 C           9.3278  -18.9520    3.0260 C.3     1  LIG11      -0.0530
     48 C          10.1782  -19.0947    4.3159 C.3     1  LIG11      -0.0559
     49 C          11.2177  -17.9471    4.4339 C.3     1  LIG11      -0.0653
     50 O          -4.1051   -9.4133    3.3976 O.2     1  LIG11      -0.2758
     51 N          -2.1734   -8.6297    4.2619 N.am    1  LIG11      -0.3131
     52 H           8.1083  -19.9236    0.7367 H       1  LIG11       0.0307
     53 H           8.8171  -21.0700    2.9018 H       1  LIG11       0.0268
     54 H           7.6190  -20.0778    3.7819 H       1  LIG11       0.0268
     55 H           8.7998  -17.9813    3.0441 H       1  LIG11       0.0265
     56 H           9.9918  -18.9706    2.1458 H       1  LIG11       0.0265
     57 H          10.7120  -20.0630    4.3047 H       1  LIG11       0.0263
     58 H           9.5189  -19.0732    5.2023 H       1  LIG11       0.0263
     59 H          11.9057  -17.9614    3.5729 H       1  LIG11       0.0230
     60 H          11.8049  -18.0572    5.3616 H       1  LIG11       0.0230
     61 H          10.7037  -16.9705    4.4582 H       1  LIG11       0.0230
     62 H          -1.1817   -8.7356    4.3761 H       1  LIG11       0.1488
@<TRIPOS>BOND
     1    23    40    1
     2    24    41    1
     3    20    38    1
     4    40    41    2
     5    40    39    1
     6    41    42    1
     7    19    37    1
     8    52    45    1
     9    38    37    2
    10    38    39    1
    11    37    36    1
    12    28    44    1
    13    17    36    1
    14    39    21    1
    15    39    22    1
    16    27    43    1
    17    44    43    2
    18    44    45    1
    19    43    42    1
    20    45    29    1
    21    45    46    1
    22    42    25    1
    23    42    26    1
    24    36    18    1
    25    36    35    1
    26     9    31    1
    27    56    47    1
    28    13    33    1
    29    10    31    1
    30    53    46    1
    31    46    47    1
    32    46    54    1
    33    31    30    1
    34    31    32    1
    35    47    55    1
    36    47    48    1
    37    35    16    1
    38    35    34    2
    39    33    14    1
    40    33    34    1
    41    33    32    1
    42    50    30    2
    43    30    51   am
    44    59    49    1
    45    34    15    1
    46    32    12    1
    47    32    11    1
    48     2     1    1
    49    51    62    1
    50    51     1    1
    51    57    48    1
    52    48    49    1
    53    48    58    1
    54    49    61    1
    55    49    60    1
    56     1     5    1
    57     1     3    1
    58     7     3    1
    59     3     6    1
    60     3     4    1
    61     4     8    1
