@<TRIPOS>MOLECULE
M21
 66 65 0 0 0
SMALL
GASTEIGER
Energy = 0

@<TRIPOS>ATOM
      1 C          -4.0461   -8.2383    3.9054 C.3     1  LIG11       0.1046
      2 C          -5.4613   -8.0324    4.5199 C.3     1  LIG11       0.0725
      3 O          -6.4685   -8.6467    3.6984 O.3     1  LIG11      -0.3924
      4 C          -2.9643   -7.6826    4.8685 C.3     1  LIG11       0.0725
      5 O          -3.1108   -6.2554    4.9861 O.3     1  LIG11      -0.3924
      6 H          -3.9598   -7.6773    2.9566 H       1  LIG11       0.0642
      7 H          -5.6957   -6.9672    4.6628 H       1  LIG11       0.0584
      8 H          -5.5057   -8.5129    5.5102 H       1  LIG11       0.0584
      9 H          -7.3494   -8.5089    4.0358 H       1  LIG11       0.2095
     10 H          -1.9648   -7.9265    4.4662 H       1  LIG11       0.0584
     11 H          -3.0605   -8.1626    5.8568 H       1  LIG11       0.0584
     12 H          -2.6451   -5.8974    5.7343 H       1  LIG11       0.2095
     13 H          -1.8818  -11.6804    1.9404 H       1  LIG11       0.0287
     14 H          -3.3350  -11.9665    2.9235 H       1  LIG11       0.0287
     15 H          -1.8087  -12.9941    4.3623 H       1  LIG11       0.0269
     16 H          -1.5719  -11.3320    4.9372 H       1  LIG11       0.0269
     17 H           0.6268  -12.3564    4.5976 H       1  LIG11       0.0307
     18 H           0.3904  -11.0047    3.4917 H       1  LIG11       0.0307
     19 H           0.2411  -12.4527    1.5425 H       1  LIG11       0.0569
     20 H           1.0823  -14.6522    1.6294 H       1  LIG11       0.0572
     21 H           0.7007  -15.9649    3.6859 H       1  LIG11       0.0350
     22 H           0.6067  -14.5181    4.6902 H       1  LIG11       0.0350
     23 H           3.2077  -14.2156    3.8029 H       1  LIG11       0.0572
     24 H           4.3456  -16.1286    4.5216 H       1  LIG11       0.0572
     25 H           1.5963  -17.4058    5.1467 H       1  LIG11       0.0350
     26 H           3.1938  -17.9515    5.6305 H       1  LIG11       0.0350
     27 H           1.6751  -18.7406    3.1963 H       1  LIG11       0.0572
     28 H           3.5306  -19.4027    1.9692 H       1  LIG11       0.0572
     29 H           5.3475  -17.4577    3.5401 H       1  LIG11       0.0350
     30 H           5.7378  -18.5868    2.2216 H       1  LIG11       0.0350
     31 H           4.9412  -20.0810    4.7018 H       1  LIG11       0.0572
     32 H           7.2202  -20.2963    5.3191 H       1  LIG11       0.0569
     33 C          -2.5570   -9.9169    2.9557 C.3     1  LIG11       0.0482
     34 C          -2.3584  -11.4559    2.9089 C.3     1  LIG11      -0.0292
     35 C          -1.4586  -11.9945    4.0609 C.3     1  LIG11      -0.0475
     36 C           0.0572  -12.0318    3.7153 C.3     1  LIG11      -0.0347
     37 C           0.3955  -12.8993    2.5265 C.2     1  LIG11      -0.0876
     38 C           0.8636  -14.1551    2.5778 C.2     1  LIG11      -0.0842
     39 C           1.1199  -14.9576    3.8289 C.3     1  LIG11      -0.0165
     40 C           2.6094  -15.0990    4.0306 C.2     1  LIG11      -0.0839
     41 C           3.2577  -16.1967    4.4436 C.2     1  LIG11      -0.0839
     42 C           2.6290  -17.5257    4.7935 C.3     1  LIG11      -0.0165
     43 C           2.6435  -18.3967    3.5607 C.2     1  LIG11      -0.0839
     44 C           3.7162  -18.7923    2.8558 C.2     1  LIG11      -0.0839
     45 C           5.1633  -18.4727    3.1568 C.3     1  LIG11      -0.0165
     46 C           5.6766  -19.4453    4.1946 C.2     1  LIG11      -0.0842
     47 C           6.9645  -19.5704    4.5410 C.2     1  LIG11      -0.0876
     48 C           8.1193  -18.7795    3.9532 C.3     1  LIG11      -0.0348
     49 C           9.3382  -19.7031    3.6987 C.3     1  LIG11      -0.0496
     50 C          10.0036  -20.1415    5.0356 C.3     1  LIG11      -0.0530
     51 C          10.6916  -18.9464    5.7461 C.3     1  LIG11      -0.0559
     52 C          12.1735  -18.8052    5.3067 C.3     1  LIG11      -0.0653
     53 H          -2.6029   -9.5144    1.9367 H       1  LIG11       0.0560
     54 O          -3.7533   -9.6426    3.7165 O.3     1  LIG11      -0.3720
     55 H           8.4390  -17.9452    4.5963 H       1  LIG11       0.0307
     56 H           7.7741  -18.3496    2.9996 H       1  LIG11       0.0307
     57 H          10.0806  -19.1661    3.0862 H       1  LIG11       0.0268
     58 H           9.0113  -20.5946    3.1369 H       1  LIG11       0.0268
     59 H          10.7503  -20.9245    4.8319 H       1  LIG11       0.0265
     60 H           9.2316  -20.5676    5.6976 H       1  LIG11       0.0265
     61 H          10.6553  -19.0957    6.8385 H       1  LIG11       0.0263
     62 H          10.1508  -18.0153    5.5046 H       1  LIG11       0.0263
     63 H          12.2383  -18.7077    4.2106 H       1  LIG11       0.0230
     64 H          12.7544  -19.6880    5.6262 H       1  LIG11       0.0230
     65 H          12.6161  -17.9083    5.7695 H       1  LIG11       0.0230
     66 H          -1.6926   -9.4629    3.4697 H       1  LIG11       0.0560
@<TRIPOS>BOND
     1    19    37    1
     2    20    38    1
     3    53    33    1
     4    13    34    1
     5    28    44    1
     6    30    45    1
     7    37    38    2
     8    37    36    1
     9    38    39    1
    10    44    45    1
    11    44    43    2
    12    34    14    1
    13    34    33    1
    14    34    35    1
    15    33    66    1
    16    33    54    1
    17     6     1    1
    18    56    48    1
    19    57    49    1
    20    58    49    1
    21    45    29    1
    22    45    46    1
    23    27    43    1
    24    18    36    1
    25    43    42    1
    26    21    39    1
    27     3     9    1
    28     3     2    1
    29    49    48    1
    30    49    50    1
    31    36    35    1
    32    36    17    1
    33    54     1    1
    34    23    40    1
    35    39    40    1
    36    39    22    1
    37     1     2    1
    38     1     4    1
    39    48    47    1
    40    48    55    1
    41    40    41    2
    42    35    15    1
    43    35    16    1
    44    46    47    2
    45    46    31    1
    46    63    52    1
    47    41    24    1
    48    41    42    1
    49    10     4    1
    50     2     7    1
    51     2     8    1
    52    47    32    1
    53    42    25    1
    54    42    26    1
    55    59    50    1
    56     4     5    1
    57     4    11    1
    58     5    12    1
    59    50    60    1
    60    50    51    1
    61    52    64    1
    62    52    51    1
    63    52    65    1
    64    62    51    1
    65    51    61    1
