@<TRIPOS>MOLECULE
M22
 64 63 0 0 0
SMALL
GASTEIGER
Energy = 0

@<TRIPOS>ATOM
      1 N          -2.6432   -9.2921    3.3063 N.am    1  LIG11      -0.3153
      2 C          -3.9097   -9.0294    3.7030 C.2     1  LIG11       0.2130
      3 C          -4.1145   -7.9659    4.7423 C.3     1  LIG11       0.0237
      4 O          -4.8987   -9.6037    3.2684 O.2     1  LIG11      -0.2758
      5 C          -3.6205   -6.6132    4.1968 C.3     1  LIG11      -0.0476
      6 C          -4.2998   -5.4685    4.9713 C.3     1  LIG11      -0.0648
      7 H          -3.5475   -8.2249    5.6486 H       1  LIG11       0.0358
      8 H          -1.8693   -8.7867    3.6997 H       1  LIG11       0.1487
      9 H          -5.1844   -7.8937    4.9873 H       1  LIG11       0.0358
     10 H          -3.8732   -6.5340    3.1292 H       1  LIG11       0.0267
     11 H          -2.5299   -6.5436    4.3216 H       1  LIG11       0.0267
     12 H          -4.0284   -5.5340    6.0352 H       1  LIG11       0.0230
     13 H          -1.5352   -9.9892    1.6690 H       1  LIG11       0.0462
     14 H          -3.2587  -10.4061    1.6106 H       1  LIG11       0.0462
     15 H          -1.8682  -12.4150    2.1283 H       1  LIG11       0.0283
     16 H          -2.9748  -12.0522    3.4705 H       1  LIG11       0.0283
     17 H          -1.0827  -10.8858    4.7063 H       1  LIG11       0.0308
     18 H           0.0110  -11.3241    3.3833 H       1  LIG11       0.0308
     19 H          -1.3726  -13.4200    5.1893 H       1  LIG11       0.0569
     20 H           0.6175  -14.6525    4.8798 H       1  LIG11       0.0572
     21 H           1.9031  -12.1746    3.7399 H       1  LIG11       0.0350
     22 H           1.4783  -13.3292    2.4758 H       1  LIG11       0.0350
     23 H           3.5172  -13.6057    4.7804 H       1  LIG11       0.0572
     24 H           4.2428  -15.6413    3.8688 H       1  LIG11       0.0572
     25 H           1.7641  -15.4381    1.9629 H       1  LIG11       0.0350
     26 H           2.3460  -16.9238    2.7031 H       1  LIG11       0.0350
     27 H           3.8177  -15.1310    0.6038 H       1  LIG11       0.0572
     28 H           5.1249  -16.9646    0.0188 H       1  LIG11       0.0572
     29 H           3.4570  -19.0164    1.3793 H       1  LIG11       0.0350
     30 H           4.6130  -18.3463    2.5494 H       1  LIG11       0.0350
     31 H           5.3041  -19.6816   -0.1755 H       1  LIG11       0.0572
     32 H           7.3571  -20.2375    0.8595 H       1  LIG11       0.0569
     33 H          -5.3916   -5.5515    4.8657 H       1  LIG11       0.0230
     34 C          -2.3929  -10.3078    2.2836 C.3     1  LIG11       0.0119
     35 C          -2.0843  -11.6900    2.9256 C.3     1  LIG11      -0.0340
     36 C          -0.8954  -11.6439    3.9267 C.3     1  LIG11      -0.0333
     37 C          -0.5974  -12.9873    4.5518 C.2     1  LIG11      -0.0876
     38 C           0.5385  -13.6840    4.3796 C.2     1  LIG11      -0.0842
     39 C           1.7120  -13.2409    3.5424 C.3     1  LIG11      -0.0165
     40 C           2.9223  -14.0339    3.9734 C.2     1  LIG11      -0.0839
     41 C           3.3362  -15.1993    3.4512 C.2     1  LIG11      -0.0839
     42 C           2.6727  -15.9476    2.3205 C.3     1  LIG11      -0.0165
     43 C           3.6751  -16.0376    1.1940 C.2     1  LIG11      -0.0839
     44 C           4.4223  -17.1016    0.8428 C.2     1  LIG11      -0.0839
     45 C           4.4070  -18.4714    1.4736 C.3     1  LIG11      -0.0165
     46 C           5.4936  -19.3025    0.8327 C.2     1  LIG11      -0.0842
     47 C           6.6567  -19.6126    1.4189 C.2     1  LIG11      -0.0876
     48 C           7.1002  -19.1821    2.8025 C.3     1  LIG11      -0.0348
     49 C           8.6447  -19.2508    2.9257 C.3     1  LIG11      -0.0496
     50 C           9.1456  -18.4930    4.1871 C.3     1  LIG11      -0.0530
     51 C          10.6876  -18.5975    4.3362 C.3     1  LIG11      -0.0559
     52 C          11.1708  -17.8916    5.6323 C.3     1  LIG11      -0.0653
     53 H           6.6495  -19.7899    3.5984 H       1  LIG11       0.0307
     54 H           6.7621  -18.1446    2.9528 H       1  LIG11       0.0307
     55 H           9.1055  -18.8073    2.0293 H       1  LIG11       0.0268
     56 H           8.9554  -20.3061    2.9863 H       1  LIG11       0.0268
     57 H           8.6691  -18.9206    5.0839 H       1  LIG11       0.0265
     58 H           8.8566  -17.4310    4.1091 H       1  LIG11       0.0265
     59 H          11.1789  -18.1258    3.4691 H       1  LIG11       0.0263
     60 H          10.9875  -19.6586    4.3707 H       1  LIG11       0.0263
     61 H          10.7377  -18.3805    6.5192 H       1  LIG11       0.0230
     62 H          10.8681  -16.8319    5.6291 H       1  LIG11       0.0230
     63 H          12.2690  -17.9396    5.7058 H       1  LIG11       0.0230
     64 H          -3.9646   -4.5022    4.5662 H       1  LIG11       0.0230
@<TRIPOS>BOND
     1    31    46    1
     2    28    44    1
     3    27    43    1
     4    46    47    2
     5    46    45    1
     6    44    43    2
     7    44    45    1
     8    32    47    1
     9    43    42    1
    10    29    45    1
    11    47    48    1
    12    45    30    1
    13    14    34    1
    14    13    34    1
    15    25    42    1
    16    55    49    1
    17    15    35    1
    18    34    35    1
    19    34     1    1
    20    42    26    1
    21    42    41    1
    22    22    39    1
    23    48    49    1
    24    48    54    1
    25    48    53    1
    26    35    16    1
    27    35    36    1
    28    49    56    1
    29    49    50    1
    30    10     5    1
    31     4     2    2
    32     1     8    1
    33     1     2   am
    34    18    36    1
    35    41    24    1
    36    41    40    2
    37    59    51    1
    38    39    21    1
    39    39    40    1
    40    39    38    1
    41     2     3    1
    42    36    37    1
    43    36    17    1
    44    40    23    1
    45    58    50    1
    46    50    51    1
    47    50    57    1
    48     5    11    1
    49     5     3    1
    50     5     6    1
    51    51    60    1
    52    51    52    1
    53    38    37    2
    54    38    20    1
    55    37    19    1
    56    64     6    1
    57     3     9    1
    58     3     7    1
    59    33     6    1
    60     6    12    1
    61    62    52    1
    62    52    63    1
    63    52    61    1
