@<TRIPOS>MOLECULE
M28
 77 76 0 0 0
SMALL
GASTEIGER
Energy = 0

@<TRIPOS>ATOM
      1 C          -3.1113  -11.1878    2.1858 C.3     1  LIG11       0.1488
      2 C          -4.5997  -11.3593    1.7737 C.3     1  LIG11       0.0834
      3 O          -4.8847  -10.5802    0.6001 O.3     1  LIG11      -0.3913
      4 C           5.4858  -21.7444    0.5561 C.3     1  LIG11      -0.0559
      5 C           6.2947  -22.3490   -0.6213 C.3     1  LIG11      -0.0653
      6 C           7.0547  -18.2148    5.9234 C.3     1  LIG11      -0.0563
      7 C           9.4240  -18.5828    5.1786 C.3     1  LIG11      -0.0563
      8 C          -2.9257   -9.8730    2.9848 C.3     1  LIG11       0.0834
      9 O          -2.8678   -8.7603    2.0770 O.3     1  LIG11      -0.3913
     10 H          -2.4677  -11.1193    1.2903 H       1  LIG11       0.0780
     11 H          -4.8064  -12.4136    1.5333 H       1  LIG11       0.0595
     12 H          -5.2763  -11.0656    2.5915 H       1  LIG11       0.0595
     13 H          -4.3614  -10.8543   -0.1462 H       1  LIG11       0.2096
     14 H           4.7631  -22.4939    0.9196 H       1  LIG11       0.0263
     15 H           4.9223  -20.8691    0.1922 H       1  LIG11       0.0263
     16 H           6.7674  -23.2937   -0.3102 H       1  LIG11       0.0230
     17 H           5.6331  -22.5543   -1.4772 H       1  LIG11       0.0230
     18 H           7.0837  -21.6520   -0.9433 H       1  LIG11       0.0230
     19 H           6.9884  -18.6952    6.9126 H       1  LIG11       0.0238
     20 H           7.4520  -17.2007    6.0764 H       1  LIG11       0.0238
     21 H           6.0354  -18.1161    5.5186 H       1  LIG11       0.0238
     22 H          10.1186  -19.1354    4.5345 H       1  LIG11       0.0238
     23 H           9.5320  -17.5185    4.9243 H       1  LIG11       0.0238
     24 H           9.7195  -18.6955    6.2326 H       1  LIG11       0.0238
     25 H          -3.7596   -9.7445    3.6947 H       1  LIG11       0.0595
     26 H          -1.9865   -9.9359    3.5592 H       1  LIG11       0.0595
     27 H          -2.7934   -7.9226    2.5239 H       1  LIG11       0.2096
     28 H          -1.7825  -13.5670    5.0127 H       1  LIG11       0.0378
     29 H          -0.8654  -14.3488    3.7062 H       1  LIG11       0.0378
     30 H           0.6367  -12.0493    4.7339 H       1  LIG11       0.0273
     31 H           0.2142  -13.1330    6.0824 H       1  LIG11       0.0273
     32 H           2.4356  -13.7360    5.1207 H       1  LIG11       0.0307
     33 C          -1.3838  -12.3475    3.2825 C.2     1  LIG11       0.3075
     34 C          -0.9826  -13.4100    4.2722 C.3     1  LIG11       0.0452
     35 C           0.3562  -13.0852    4.9916 C.3     1  LIG11      -0.0395
     36 C           1.5290  -14.0066    4.5564 C.3     1  LIG11      -0.0343
     37 C           1.8388  -13.9314    3.0810 C.2     1  LIG11      -0.0876
     38 C           2.5233  -14.8523    2.3868 C.2     1  LIG11      -0.0842
     39 C           3.0689  -16.1487    2.9417 C.3     1  LIG11      -0.0165
     40 C           3.7594  -15.8728    4.2567 C.2     1  LIG11      -0.0839
     41 C           3.8929  -16.7208    5.2884 C.2     1  LIG11      -0.0839
     42 C           3.3717  -18.1380    5.3563 C.3     1  LIG11      -0.0165
     43 C           3.9978  -18.8142    6.5539 C.2     1  LIG11      -0.0839
     44 C           4.7402  -19.9322    6.5641 C.2     1  LIG11      -0.0839
     45 C           5.1442  -20.7762    5.3773 C.3     1  LIG11      -0.0165
     46 C           6.5792  -21.2339    5.5192 C.2     1  LIG11      -0.0837
     47 C           7.7161  -20.5323    5.3586 C.2     1  LIG11      -0.0820
     48 C           7.9589  -19.0715    4.9806 C.3     1  LIG11      -0.0169
     49 C           7.5068  -18.9307    3.4905 C.3     1  LIG11      -0.0444
     50 C           8.3225  -19.7542    2.4525 C.3     1  LIG11      -0.0523
     51 C           7.4265  -20.2207    1.2709 C.3     1  LIG11      -0.0530
     52 C           6.4187  -21.3144    1.7213 C.3     1  LIG11      -0.0533
     53 O          -0.5498  -11.6192    2.7664 O.2     1  LIG11      -0.2508
     54 O          -2.7045  -12.2710    3.0497 O.3     1  LIG11      -0.4567
     55 H           1.2992  -15.0475    4.8270 H       1  LIG11       0.0307
     56 H           1.4849  -13.0500    2.5443 H       1  LIG11       0.0569
     57 H           2.7119  -14.6581    1.3286 H       1  LIG11       0.0572
     58 H           2.2871  -16.9151    3.0022 H       1  LIG11       0.0350
     59 H           3.8299  -16.5347    2.2453 H       1  LIG11       0.0350
     60 H           4.2014  -14.8795    4.3599 H       1  LIG11       0.0572
     61 H           4.4416  -16.3615    6.1622 H       1  LIG11       0.0572
     62 H           2.2757  -18.0888    5.3997 H       1  LIG11       0.0350
     63 H           3.6187  -18.7131    4.4539 H       1  LIG11       0.0350
     64 H           3.8146  -18.3315    7.5157 H       1  LIG11       0.0572
     65 H           5.0889  -20.2874    7.5369 H       1  LIG11       0.0572
     66 H           4.4858  -21.6594    5.4072 H       1  LIG11       0.0350
     67 H           5.0018  -20.3242    4.3904 H       1  LIG11       0.0350
     68 H           6.6936  -22.2840    5.8048 H       1  LIG11       0.0572
     69 H           8.6235  -21.1106    5.5515 H       1  LIG11       0.0574
     70 H           6.4529  -19.2403    3.4156 H       1  LIG11       0.0273
     71 H           7.5617  -17.8673    3.2040 H       1  LIG11       0.0273
     72 H           9.1407  -19.1441    2.0409 H       1  LIG11       0.0266
     73 H           8.7543  -20.6473    2.9301 H       1  LIG11       0.0266
     74 H           6.8703  -19.3576    0.8691 H       1  LIG11       0.0265
     75 H           8.0628  -20.6258    0.4667 H       1  LIG11       0.0265
     76 H           5.8061  -20.9267    2.5522 H       1  LIG11       0.0265
     77 H           6.9739  -22.1957    2.0830 H       1  LIG11       0.0265
@<TRIPOS>BOND
     1    17     5    1
     2    18     5    1
     3     5    16    1
     4     5     4    1
     5    13     3    1
     6    15     4    1
     7    75    51    1
     8     4    14    1
     9     4    52    1
    10     3     2    1
    11    74    51    1
    12    51    52    1
    13    51    50    1
    14    10     1    1
    15    57    38    1
    16    11     2    1
    17    52    77    1
    18    52    76    1
    19     2     1    1
    20     2    12    1
    21    72    50    1
    22     9    27    1
    23     9     8    1
    24     1     8    1
    25     1    54    1
    26    59    39    1
    27    38    39    1
    28    38    37    2
    29    50    73    1
    30    50    49    1
    31    56    37    1
    32    53    33    2
    33    39    58    1
    34    39    40    1
    35     8    26    1
    36     8    25    1
    37    54    33    1
    38    37    36    1
    39    71    49    1
    40    33    34    1
    41    70    49    1
    42    49    48    1
    43    29    34    1
    44    40    60    1
    45    40    41    2
    46    34    35    1
    47    34    28    1
    48    67    45    1
    49    63    42    1
    50    22     7    1
    51    36    55    1
    52    36    35    1
    53    36    32    1
    54    30    35    1
    55    23     7    1
    56    48     7    1
    57    48    47    1
    58    48     6    1
    59    35    31    1
    60     7    24    1
    61    41    42    1
    62    41    61    1
    63    42    62    1
    64    42    43    1
    65    47    46    2
    66    47    69    1
    67    45    66    1
    68    45    46    1
    69    45    44    1
    70    21     6    1
    71    46    68    1
    72     6    20    1
    73     6    19    1
    74    43    44    2
    75    43    64    1
    76    44    65    1
