@<TRIPOS>MOLECULE
M30
 67 66 0 0 0
SMALL
GASTEIGER
Energy = 0

@<TRIPOS>ATOM
      1 C          -3.9472   -8.1839    4.2815 C.2     1  LIG11       0.2130
      2 O          -4.6604   -8.6013    3.3815 O.2     1  LIG11      -0.2758
      3 C          -3.9979   -8.2030    7.3503 C.3     1  LIG11      -0.0648
      4 C          -4.4015   -7.0097    5.1166 C.3     1  LIG11       0.0237
      5 C          -5.0237   -7.4316    6.4742 C.3     1  LIG11      -0.0476
      6 H          -3.1528   -7.5448    7.6131 H       1  LIG11       0.0230
      7 H          -4.4674   -8.5562    8.2836 H       1  LIG11       0.0230
      8 H          -3.6016   -9.0738    6.8011 H       1  LIG11       0.0230
      9 H          -3.5350   -6.3571    5.3016 H       1  LIG11       0.0358
     10 H          -5.1462   -6.4448    4.5377 H       1  LIG11       0.0358
     11 H          -5.3548   -6.5344    7.0229 H       1  LIG11       0.0267
     12 H          -5.9038   -8.0718    6.2967 H       1  LIG11       0.0267
     13 H          -1.7189   -9.3941    2.8866 H       1  LIG11       0.0462
     14 H          -3.0484  -10.4545    3.4009 H       1  LIG11       0.0462
     15 H          -0.1681  -10.2663    4.4355 H       1  LIG11       0.0280
     16 H          -1.4471  -10.6492    5.6065 H       1  LIG11       0.0280
     17 H          -0.7598  -12.8110    4.8933 H       1  LIG11       0.0269
     18 H          -2.1842  -12.5257    3.8709 H       1  LIG11       0.0269
     19 H          -0.5026  -11.7000    2.0577 H       1  LIG11       0.0307
     20 H           0.8000  -12.2847    3.0954 H       1  LIG11       0.0307
     21 H          -1.4759  -14.1925    2.1942 H       1  LIG11       0.0569
     22 H           0.2119  -15.5768    1.3334 H       1  LIG11       0.0572
     23 H           2.4011  -14.3476    0.7151 H       1  LIG11       0.0350
     24 H           2.1388  -13.2946    2.1073 H       1  LIG11       0.0350
     25 H           2.5684  -15.0523    3.7542 H       1  LIG11       0.0572
     26 H           3.9412  -16.8613    3.1730 H       1  LIG11       0.0572
     27 H           3.3999  -15.9945    0.2589 H       1  LIG11       0.0350
     28 H           4.9134  -16.7351    0.7778 H       1  LIG11       0.0350
     29 H           2.5376  -18.2336   -0.0534 H       1  LIG11       0.0572
     30 H           3.1195  -20.1637    1.1226 H       1  LIG11       0.0572
     31 H           4.8818  -18.3121    2.8433 H       1  LIG11       0.0350
     32 H           4.1227  -19.7828    3.4935 H       1  LIG11       0.0350
     33 C          -2.2193   -9.8297    3.7655 C.3     1  LIG11       0.0116
     34 C          -1.1796  -10.6971    4.5372 C.3     1  LIG11      -0.0371
     35 C          -1.1576  -12.1863    4.0760 C.3     1  LIG11      -0.0482
     36 C          -0.2552  -12.4446    2.8333 C.3     1  LIG11      -0.0347
     37 C          -0.4510  -13.8172    2.2347 C.2     1  LIG11      -0.0876
     38 C           0.5148  -14.6148    1.7542 C.2     1  LIG11      -0.0842
     39 C           1.9963  -14.3208    1.7348 C.3     1  LIG11      -0.0165
     40 C           2.7057  -15.2542    2.6896 C.2     1  LIG11      -0.0839
     41 C           3.4916  -16.2895    2.3561 C.2     1  LIG11      -0.0839
     42 C           3.8279  -16.7331    0.9502 C.3     1  LIG11      -0.0165
     43 C           3.2747  -18.1233    0.7449 C.2     1  LIG11      -0.0839
     44 C           3.5954  -19.2312    1.4308 C.2     1  LIG11      -0.0839
     45 C           4.5611  -19.3348    2.5897 C.3     1  LIG11      -0.0165
     46 C           5.7680  -20.1602    2.2030 C.2     1  LIG11      -0.0842
     47 C           7.0381  -19.7471    2.3241 C.2     1  LIG11      -0.0876
     48 C           7.4783  -18.4005    2.8530 C.3     1  LIG11      -0.0348
     49 C           8.3973  -18.5909    4.0877 C.3     1  LIG11      -0.0496
     50 C           9.6991  -19.3522    3.7111 C.3     1  LIG11      -0.0530
     51 C          10.6959  -19.3978    4.9010 C.3     1  LIG11      -0.0559
     52 C          11.1735  -17.9748    5.2994 C.3     1  LIG11      -0.0653
     53 H           5.5900  -21.1612    1.8064 H       1  LIG11       0.0572
     54 N          -2.7445   -8.7297    4.5746 N.am    1  LIG11      -0.3153
     55 H           7.8318  -20.4340    2.0239 H       1  LIG11       0.0569
     56 H           8.0290  -17.8775    2.0560 H       1  LIG11       0.0307
     57 H           6.6302  -17.7635    3.1381 H       1  LIG11       0.0307
     58 H           8.6611  -17.6034    4.4958 H       1  LIG11       0.0268
     59 H           7.8557  -19.1513    4.8687 H       1  LIG11       0.0268
     60 H           9.4431  -20.3819    3.4131 H       1  LIG11       0.0265
     61 H          10.1837  -18.8555    2.8544 H       1  LIG11       0.0265
     62 H          10.2121  -19.8692    5.7728 H       1  LIG11       0.0263
     63 H          11.5714  -20.0076    4.6194 H       1  LIG11       0.0263
     64 H          10.3089  -17.3469    5.5695 H       1  LIG11       0.0230
     65 H          11.8542  -18.0278    6.1639 H       1  LIG11       0.0230
     66 H          11.7023  -17.4974    4.4580 H       1  LIG11       0.0230
     67 H          -2.1843   -8.3629    5.3180 H       1  LIG11       0.1487
@<TRIPOS>BOND
     1    29    43    1
     2    27    42    1
     3    23    39    1
     4    43    42    1
     5    43    44    2
     6    28    42    1
     7    42    41    1
     8    30    44    1
     9    22    38    1
    10    44    45    1
    11    39    38    1
    12    39    24    1
    13    39    40    1
    14    38    37    2
    15    53    46    1
    16    55    47    1
    17    56    48    1
    18    19    36    1
    19    21    37    1
    20    46    47    2
    21    46    45    1
    22    37    36    1
    23    47    48    1
    24    41    40    2
    25    41    26    1
    26    45    31    1
    27    45    32    1
    28    40    25    1
    29    36    20    1
    30    36    35    1
    31    48    57    1
    32    48    49    1
    33    61    50    1
    34    13    33    1
    35     2     1    2
    36    14    33    1
    37    60    50    1
    38    50    49    1
    39    50    51    1
    40    33    34    1
    41    33    54    1
    42    18    35    1
    43    35    34    1
    44    35    17    1
    45    49    58    1
    46    49    59    1
    47     1    54   am
    48     1     4    1
    49    15    34    1
    50    66    52    1
    51    34    16    1
    52    10     4    1
    53    54    67    1
    54    63    51    1
    55    51    52    1
    56    51    62    1
    57     4     9    1
    58     4     5    1
    59    52    64    1
    60    52    65    1
    61    12     5    1
    62     5    11    1
    63     5     3    1
    64     8     3    1
    65     3     6    1
    66     3     7    1
