#	Name:			mol18
#	Creating user name:	becker
#	Creation time:		Wed Apr 19 13:40:35 2006

#	Modifying user name:	becker
#	Modification time:	Wed Apr 19 13:40:35 2006

@<TRIPOS>MOLECULE
mol18
   45    47     1     0     0
SMALL
NO_CHARGES


@<TRIPOS>ATOM
      1 C           0.535000   -3.544000   -0.795000 C.ar      1 <1>         0.000000 
      2 H           0.098000   -4.485000   -1.115000 H         1 <1>         0.000000 
      3 C           1.901000   -3.465000   -0.520000 C.ar      1 <1>         0.000000 
      4 C           2.456000   -2.248000   -0.118000 C.ar      1 <1>         0.000000 
      5 H           3.522000   -2.199000    0.077000 H         1 <1>         0.000000 
      6 C           1.658000   -1.107000    0.031000 C.ar      1 <1>         0.000000 
      7 C           0.280000   -1.192000   -0.223000 C.ar      1 <1>         0.000000 
      8 C          -0.265000   -2.407000   -0.658000 C.ar      1 <1>         0.000000 
      9 H          -1.320000   -2.477000   -0.900000 H         1 <1>         0.000000 
     10 N          -0.542000   -0.127000   -0.051000 N.pl3     1 <1>         0.000000 
     11 C          -1.719000   -0.167000    0.497000 C.ar      1 <1>         0.000000 
     12 H          -2.222000   -1.040000    0.911000 H         1 <1>         0.000000 
     13 N          -2.223000    0.982000    0.492000 N.ar      1 <1>         0.000000 
     14 C          -1.318000    1.917000   -0.118000 C.ar      1 <1>         0.000000 
     15 C          -0.283000    1.107000   -0.422000 C.ar      1 <1>         0.000000 
     16 C           1.018000    1.464000   -1.078000 C.3       1 <1>         0.000000 
     17 H           0.993000    2.468000   -1.521000 H         1 <1>         0.000000 
     18 H           1.247000    0.759000   -1.893000 H         1 <1>         0.000000 
     19 N           2.010000    1.385000   -0.015000 N.am      1 <1>         0.000000 
     20 C           2.346000    0.167000    0.483000 C.2       1 <1>         0.000000 
     21 O           3.230000    0.034000    1.315000 O.2       1 <1>         0.000000 
     22 C           2.664000    2.585000    0.509000 C.3       1 <1>         0.000000 
     23 H           3.070000    2.448000    1.523000 H         1 <1>         0.000000 
     24 H           1.942000    3.413000    0.561000 H         1 <1>         0.000000 
     25 H           3.486000    2.873000   -0.164000 H         1 <1>         0.000000 
     26 C          -1.581000    3.354000   -0.295000 C.2       1 <1>         0.000000 
     27 O          -2.595000    3.813000    0.209000 O.2       1 <1>         0.000000 
     28 O          -0.724000    4.110000   -0.998000 O.3       1 <1>         0.000000 
     29 C          -1.100000    5.498000   -1.115000 C.3       1 <1>         0.000000 
     30 H          -1.133000    5.960000   -0.115000 H         1 <1>         0.000000 
     31 H          -2.097000    5.583000   -1.579000 H         1 <1>         0.000000 
     32 C          -0.064000    6.246000   -2.005000 C.3       1 <1>         0.000000 
     33 C          -0.467000    7.746000   -2.117000 C.3       1 <1>         0.000000 
     34 H           0.250000    8.295000   -2.748000 H         1 <1>         0.000000 
     35 H          -0.483000    8.218000   -1.123000 H         1 <1>         0.000000 
     36 H          -1.467000    7.847000   -2.565000 H         1 <1>         0.000000 
     37 C          -0.040000    5.608000   -3.425000 C.3       1 <1>         0.000000 
     38 H           0.248000    4.547000   -3.372000 H         1 <1>         0.000000 
     39 H           0.684000    6.129000   -4.070000 H         1 <1>         0.000000 
     40 H          -1.032000    5.674000   -3.896000 H         1 <1>         0.000000 
     41 C           1.353000    6.139000   -1.369000 C.3       1 <1>         0.000000 
     42 H           1.353000    6.549000   -0.347000 H         1 <1>         0.000000 
     43 H           2.088000    6.699000   -1.967000 H         1 <1>         0.000000 
     44 H           1.680000    5.091000   -1.323000 H         1 <1>         0.000000 
     45 Cl          2.914000   -4.886000   -0.680000 Cl        1 <1>         0.000000 
@<TRIPOS>BOND
     1    2    1 1    
     2    1    3 ar   
     3    3    4 ar   
     4    4    5 1    
     5    4    6 ar   
     6    6    7 ar   
     7    7    8 ar   
     8    8    9 1    
     9    8    1 ar   
    10    7   10 1    
    11   10   11 ar   
    12   11   12 1    
    13   11   13 ar   
    14   13   14 ar   
    15   14   15 ar   
    16   15   10 ar   
    17   15   16 1    
    18   16   17 1    
    19   16   18 1    
    20   16   19 1    
    21   19   20 am   
    22   20    6 1    
    23   20   21 2    
    24   19   22 1    
    25   22   23 1    
    26   22   24 1    
    27   22   25 1    
    28   14   26 1    
    29   26   27 2    
    30   26   28 1    
    31   28   29 1    
    32   29   30 1    
    33   29   31 1    
    34   29   32 1    
    35   32   33 1    
    36   33   34 1    
    37   33   35 1    
    38   33   36 1    
    39   32   37 1    
    40   37   38 1    
    41   37   39 1    
    42   37   40 1    
    43   32   41 1    
    44   41   42 1    
    45   41   43 1    
    46   41   44 1    
    47    3   45 1    
@<TRIPOS>SUBSTRUCTURE
     1 ****        2 TEMP              0 ****  ****    0 ROOT 
