@<TRIPOS>MOLECULE
cpd18
 54 57 0 0 0
SMALL
GASTEIGER
Energy = 0

@<TRIPOS>ATOM
      1 C          -3.0379   -1.0710    0.3195 C.ar    1  LIG11      -0.0537
      2 C          -2.8228   -0.2091   -0.7548 C.ar    1  LIG11      -0.0563
      3 C          -1.6348   -0.2655   -1.4859 C.ar    1  LIG11      -0.0277
      4 C          -0.7103   -1.2675   -1.1835 C.ar    1  LIG11      -0.0563
      5 C          -0.9233   -2.1279   -0.1081 C.ar    1  LIG11      -0.0537
      6 C          -2.0682   -2.0077    0.6815 C.ar    1  LIG11      -0.0171
      7 C          -1.3574   -4.0150    3.8403 C.ar    1  LIG11      -0.0472
      8 C          -1.2226   -3.0529    2.8370 C.ar    1  LIG11       0.0665
      9 C          -2.2466   -2.8636    1.9015 C.ar    1  LIG11      -0.0039
     10 C          -3.4424   -3.5700    2.0578 C.ar    1  LIG11      -0.0532
     11 C          -3.5945   -4.4984    3.0862 C.ar    1  LIG11      -0.0611
     12 C          -2.5426   -4.7370    3.9674 C.ar    1  LIG11      -0.0609
     13 H          -3.9573   -0.9614    0.9192 H       1  LIG11       0.0624
     14 H          -3.5893    0.5441   -1.0011 H       1  LIG11       0.0621
     15 H           0.2188   -1.3612   -1.7704 H       1  LIG11       0.0621
     16 H          -0.1745   -2.9072    0.1129 H       1  LIG11       0.0624
     17 H          -0.5490   -4.1829    4.5720 H       1  LIG11       0.0626
     18 H          -4.2637   -3.4440    1.3321 H       1  LIG11       0.0624
     19 H          -4.5382   -5.0615    3.1884 H       1  LIG11       0.0618
     20 H          -2.6538   -5.4832    4.7729 H       1  LIG11       0.0618
     21 C          -2.4883    2.8396   -2.3422 C.ar    1  LIG11       0.0496
     22 C          -2.3742    4.0564   -1.6809 C.ar    1  LIG11       0.0001
     23 C          -1.1560    3.8978   -0.9130 C.ar    1  LIG11      -0.0332
     24 C          -0.7409    2.6586   -1.2299 C.ar    1  LIG11       0.0202
     25 N          -1.5175    2.1297   -2.0459 N.ar    1  LIG11      -0.3395
     26 C          -3.2895    5.0934   -1.7841 C.ar    1  LIG11      -0.0526
     27 C          -4.3940    4.8802   -2.6091 C.ar    1  LIG11      -0.0611
     28 C          -4.5471    3.6634   -3.2791 C.ar    1  LIG11      -0.0598
     29 C          -3.6063    2.6374   -3.1515 C.ar    1  LIG11      -0.0376
     30 H          -5.1522    5.6734   -2.7258 H       1  LIG11       0.0618
     31 C           0.4993    2.0109   -0.6541 C.3     1  LIG11      -0.0123
     32 H           0.1948    1.0783   -0.1267 H       1  LIG11       0.0328
     33 H           1.1795    1.7329   -1.4931 H       1  LIG11       0.0328
     34 C           1.2943    2.8646    0.3474 C.3     1  LIG11      -0.0480
     35 H           1.6415    3.8028   -0.1489 H       1  LIG11       0.0269
     36 H           0.6377    3.1473    1.2054 H       1  LIG11       0.0269
     37 C           2.5167    2.1074    0.8943 C.3     1  LIG11      -0.0556
     38 H           2.1831    1.1649    1.3929 H       1  LIG11       0.0263
     39 H           3.1868    1.8163    0.0493 H       1  LIG11       0.0263
     40 C          -1.3345    0.7641   -2.5512 C.3     1  LIG11       0.0486
     41 H          -0.2949    0.6570   -2.9382 H       1  LIG11       0.0541
     42 H          -1.9724    0.5402   -3.4345 H       1  LIG11       0.0541
     43 H          -3.1490    6.0379   -1.2329 H       1  LIG11       0.0624
     44 H          -5.4326    3.5084   -3.9194 H       1  LIG11       0.0618
     45 C           3.3100    2.9541    1.8985 C.3     1  LIG11      -0.0653
     46 H           4.1926    2.3933    2.2856 H       1  LIG11       0.0230
     47 H           3.6848    3.8917    1.4265 H       1  LIG11       0.0230
     48 H           2.6790    3.2374    2.7726 H       1  LIG11       0.0230
     49 H          -3.7818    1.6890   -3.6834 H       1  LIG11       0.0638
     50 C           0.0108   -2.1884    2.8428 C.2     1  LIG11       0.3374
     51 O          -0.0414   -0.8906    2.5152 O.3     1  LIG11      -0.4771
     52 O           1.0807   -2.6522    3.1546 O.2     1  LIG11      -0.2451
     53 H          -0.9749   -0.6545    2.4215 H       1  LIG11       0.2954
     54 H          -0.7088    4.6335   -0.2262 H       1  LIG11       0.0641
@<TRIPOS>BOND
     1    44    28    1
     2    49    29    1
     3    42    40    1
     4    28    29   ar
     5    28    27   ar
     6    29    21   ar
     7    41    40    1
     8    30    27    1
     9    27    26   ar
    10    40    25    1
    11    40     3    1
    12    21    25   ar
    13    21    22   ar
    14    25    24   ar
    15    26    22   ar
    16    26    43    1
    17    15     4    1
    18    22    23   ar
    19    33    31    1
    20     3     4   ar
    21     3     2   ar
    22    24    23   ar
    23    24    31    1
    24     4     5   ar
    25    14     2    1
    26    23    54    1
    27     2     1   ar
    28    31    32    1
    29    31    34    1
    30    35    34    1
    31     5    16    1
    32     5     6   ar
    33    39    37    1
    34     1     6   ar
    35     1    13    1
    36    34    37    1
    37    34    36    1
    38     6     9    1
    39    37    38    1
    40    37    45    1
    41    18    10    1
    42    47    45    1
    43    45    46    1
    44    45    48    1
    45     9    10   ar
    46     9     8   ar
    47    10    11   ar
    48    53    51    1
    49    51    50    1
    50     8    50    1
    51     8     7   ar
    52    50    52    2
    53    11    19    1
    54    11    12   ar
    55     7    12   ar
    56     7    17    1
    57    12    20    1
