@<TRIPOS>MOLECULE
Mol_08
 80 82 0 0 0
SMALL
GASTEIGER
Energy = 0

@<TRIPOS>ATOM
      1 C           2.7480   -4.5579   -0.0793 C.2     1  LIG11       0.3056
      2 C           2.1538   -4.9977    2.2463 C.3     1  LIG11       0.0400
      3 C           0.6964   -3.5164    0.7788 C.3     1  LIG11       0.0599
      4 C           0.8713   -1.9972    0.5602 C.3     1  LIG11       0.1016
      5 C           1.4774   -1.6909   -0.8321 C.3     1  LIG11       0.1016
      6 C           2.9112   -2.2623   -0.9822 C.3     1  LIG11       0.0599
      7 C           3.6836   -4.3020   -2.3130 C.3     1  LIG11       0.0400
      8 C           2.4639   -3.9889    3.3829 C.3     1  LIG11       0.0636
      9 O           2.4127   -4.6839    4.6444 O.3     1  LIG11      -0.3760
     10 C           2.5108   -3.8073    5.7886 C.3     1  LIG11       0.0711
     11 C           2.3817   -4.6432    7.0876 C.3     1  LIG11       0.0706
     12 O           0.9981   -4.6745    7.5005 O.3     1  LIG11      -0.3807
     13 C           0.7803   -5.4446    8.6970 C.3     1  LIG11       0.0365
     14 H           2.9890   -5.7169    2.2320 H       1  LIG11       0.0488
     15 H           1.2481   -5.5673    2.5098 H       1  LIG11       0.0488
     16 H           0.1084   -3.5600    1.7114 H       1  LIG11       0.0530
     17 H           1.5280   -1.6143    1.3580 H       1  LIG11       0.0638
     18 C          -0.2390   -4.1975   -0.2618 C.3     1  LIG11      -0.0064
     19 C          -0.7356   -5.5636    0.2389 C.ar    1  LIG11      -0.0455
     20 C          -0.1802   -6.7541   -0.2428 C.ar    1  LIG11      -0.0585
     21 C          -0.6614   -7.9905    0.2014 C.ar    1  LIG11      -0.0615
     22 C          -1.6874   -8.0443    1.1473 C.ar    1  LIG11      -0.0617
     23 C          -2.2387   -6.8582    1.6417 C.ar    1  LIG11      -0.0615
     24 C          -1.7669   -5.6251    1.1850 C.ar    1  LIG11      -0.0585
     25 C           3.9180   -1.7391    0.0847 C.3     1  LIG11      -0.0064
     26 C           5.3753   -2.0289   -0.3136 C.ar    1  LIG11      -0.0455
     27 C           6.1162   -1.0816   -1.0311 C.ar    1  LIG11      -0.0585
     28 C           7.4486   -1.3322   -1.3731 C.ar    1  LIG11      -0.0615
     29 C           8.0508   -2.5384   -1.0053 C.ar    1  LIG11      -0.0617
     30 C           7.3161   -3.4909   -0.2944 C.ar    1  LIG11      -0.0615
     31 C           5.9841   -3.2370    0.0473 C.ar    1  LIG11      -0.0585
     32 C           2.6506   -4.8055   -3.3563 C.3     1  LIG11       0.0636
     33 O           2.1731   -3.7234   -4.1868 O.3     1  LIG11      -0.3760
     34 C           1.3873   -4.1678   -5.3219 C.3     1  LIG11       0.0711
     35 C           2.0422   -3.6814   -6.6404 C.3     1  LIG11       0.0706
     36 O           3.4029   -4.1592   -6.7059 O.3     1  LIG11      -0.3807
     37 C           4.0928   -3.7525   -7.9037 C.3     1  LIG11       0.0365
     38 H           0.8662   -2.1307   -1.6381 H       1  LIG11       0.0638
     39 H           3.2433   -1.7896   -1.9231 H       1  LIG11       0.0530
     40 H           4.3528   -5.1353   -2.0430 H       1  LIG11       0.0488
     41 H           4.3366   -3.5774   -2.8240 H       1  LIG11       0.0488
     42 N           1.9291   -4.2869    0.9745 N.am    1  LIG11      -0.2774
     43 N           3.0339   -3.7207   -1.1215 N.am    1  LIG11      -0.2774
     44 H           1.7096   -3.1894    3.3826 H       1  LIG11       0.0575
     45 H           3.4554   -3.5342    3.2229 H       1  LIG11       0.0575
     46 H           1.6973   -3.0629    5.7866 H       1  LIG11       0.0583
     47 H           3.4755   -3.2731    5.7715 H       1  LIG11       0.0583
     48 O           3.2748   -5.6578   -0.0799 O.2     1  LIG11      -0.2524
     49 O          -0.4240   -1.3856    0.7379 O.3     1  LIG11      -0.3873
     50 O           1.5245   -0.2664   -1.0529 O.3     1  LIG11      -0.3873
     51 H           2.9831   -4.1753    7.8845 H       1  LIG11       0.0582
     52 H           2.7682   -5.6586    6.9008 H       1  LIG11       0.0582
     53 H          -0.2803   -5.3534    8.9744 H       1  LIG11       0.0524
     54 H           1.3909   -5.0719    9.5343 H       1  LIG11       0.0524
     55 H           1.0071   -6.5071    8.5204 H       1  LIG11       0.0524
     56 H           0.2757   -4.3353   -1.2206 H       1  LIG11       0.0332
     57 H          -1.1232   -3.5676   -0.4492 H       1  LIG11       0.0332
     58 H           0.6280   -6.7299   -0.9663 H       1  LIG11       0.0620
     59 H          -0.2368   -8.9101   -0.1899 H       1  LIG11       0.0618
     60 H          -2.0562   -9.0034    1.4982 H       1  LIG11       0.0618
     61 H          -3.0342   -6.8971    2.3798 H       1  LIG11       0.0618
     62 H          -2.2089   -4.7112    1.5692 H       1  LIG11       0.0620
     63 H           3.7449   -2.2155    1.0589 H       1  LIG11       0.0332
     64 H           3.7938   -0.6525    0.2190 H       1  LIG11       0.0332
     65 H           5.6607   -0.1416   -1.3255 H       1  LIG11       0.0620
     66 H           8.0177   -0.5896   -1.9245 H       1  LIG11       0.0618
     67 H           9.0855   -2.7345   -1.2709 H       1  LIG11       0.0618
     68 H           7.7816   -4.4288   -0.0064 H       1  LIG11       0.0618
     69 H           5.4270   -3.9871    0.5991 H       1  LIG11       0.0620
     70 H           1.8034   -5.2897   -2.8482 H       1  LIG11       0.0575
     71 H           3.1551   -5.5543   -3.9905 H       1  LIG11       0.0575
     72 H           0.3799   -3.7335   -5.2242 H       1  LIG11       0.0583
     73 H           1.2733   -5.2628   -5.3958 H       1  LIG11       0.0583
     74 H           2.0252   -2.5796   -6.6530 H       1  LIG11       0.0582
     75 H           1.4619   -4.0576   -7.5005 H       1  LIG11       0.0582
     76 H           3.6446   -4.2243   -8.7917 H       1  LIG11       0.0524
     77 H           5.1389   -4.0832   -7.8230 H       1  LIG11       0.0524
     78 H           4.0854   -2.6581   -8.0273 H       1  LIG11       0.0524
     79 H          -0.3939   -0.4408    0.8542 H       1  LIG11       0.2100
     80 H           0.6615    0.1279   -1.1397 H       1  LIG11       0.2100
@<TRIPOS>BOND
     1    76    37    1
     2    78    37    1
     3    37    77    1
     4    37    36    1
     5    75    35    1
     6    36    35    1
     7    74    35    1
     8    35    34    1
     9    73    34    1
    10    34    72    1
    11    34    33    1
    12    33    32    1
    13    71    32    1
    14    32    70    1
    15    32     7    1
    16    41     7    1
    17     7    40    1
    18     7    43    1
    19    66    28    1
    20    39     6    1
    21    38     5    1
    22    28    27   ar
    23    28    29   ar
    24    65    27    1
    25    67    29    1
    26    56    18    1
    27    80    50    1
    28    43     6    1
    29    43     1   am
    30    50     5    1
    31    27    26   ar
    32    29    30   ar
    33     6     5    1
    34     6    25    1
    35    58    20    1
    36     5     4    1
    37    57    18    1
    38    26    31   ar
    39    26    25    1
    40    30    68    1
    41    30    31   ar
    42    18    19    1
    43    18     3    1
    44    20    21   ar
    45    20    19   ar
    46    59    21    1
    47    48     1    2
    48     1    42   am
    49    31    69    1
    50    25    64    1
    51    25    63    1
    52    21    22   ar
    53    19    24   ar
    54     4    49    1
    55     4     3    1
    56     4    17    1
    57    49    79    1
    58     3    42    1
    59     3    16    1
    60    42     2    1
    61    22    60    1
    62    22    23   ar
    63    24    62    1
    64    24    23   ar
    65    23    61    1
    66    14     2    1
    67     2    15    1
    68     2     8    1
    69    45     8    1
    70    44     8    1
    71     8     9    1
    72     9    10    1
    73    47    10    1
    74    46    10    1
    75    10    11    1
    76    52    11    1
    77    11    12    1
    78    11    51    1
    79    12    13    1
    80    55    13    1
    81    13    53    1
    82    13    54    1
