@<TRIPOS>MOLECULE
Mol_99
 92 97 0 0 0
SMALL
GASTEIGER
Energy = 0

@<TRIPOS>ATOM
      1 C           2.5152   -4.8301    0.4801 C.2     1  LIG11       0.3060
      2 C           3.3804   -4.7427   -1.7845 C.3     1  LIG11       0.0416
      3 C           2.7279   -2.6026   -0.5672 C.3     1  LIG11       0.0601
      4 C           1.3527   -1.9203   -0.3609 C.3     1  LIG11       0.1016
      5 C           0.7752   -2.1930    1.0528 C.3     1  LIG11       0.1016
      6 C           0.4731   -3.6929    1.2793 C.3     1  LIG11       0.0601
      7 C           1.7267   -5.3400    2.7373 C.3     1  LIG11       0.0418
      8 C           2.7248   -4.4104   -3.1365 C.ar    1  LIG11      -0.0293
      9 C           3.4650   -3.7914   -4.1479 C.ar    1  LIG11      -0.0449
     10 C           2.8960   -3.5574   -5.4057 C.ar    1  LIG11       0.0374
     11 C           1.5415   -3.8266   -5.6212 C.ar    1  LIG11      -0.0496
     12 C           0.7836   -4.4145   -4.6075 C.ar    1  LIG11      -0.0607
     13 C           1.3899   -4.7472   -3.3928 C.ar    1  LIG11      -0.0570
     14 C           3.7336   -3.0283   -6.5465 C.2     1  LIG11       0.2494
     15 C           5.7985   -3.0852   -7.8171 C.ar    1  LIG11       0.1434
     16 N           5.2597   -2.3348   -8.7991 N.ar    1  LIG11      -0.2371
     17 C           3.8085   -2.0704    0.4227 C.3     1  LIG11      -0.0064
     18 C           5.2390   -2.2206   -0.1231 C.ar    1  LIG11      -0.0455
     19 C           5.8118   -1.1894   -0.8780 C.ar    1  LIG11      -0.0585
     20 C           7.1219   -1.2985   -1.3536 C.ar    1  LIG11      -0.0615
     21 C           7.8694   -2.4476   -1.0835 C.ar    1  LIG11      -0.0617
     22 C           7.3004   -3.4860   -0.3409 C.ar    1  LIG11      -0.0615
     23 C           5.9898   -3.3738    0.1345 C.ar    1  LIG11      -0.0585
     24 C          -0.4827   -4.3005    0.2143 C.3     1  LIG11      -0.0064
     25 C          -1.1278   -5.6244    0.6549 C.ar    1  LIG11      -0.0455
     26 C          -2.1653   -5.6040    1.5937 C.ar    1  LIG11      -0.0585
     27 C          -2.7825   -6.7917    1.9966 C.ar    1  LIG11      -0.0615
     28 C          -2.3699   -8.0125    1.4564 C.ar    1  LIG11      -0.0617
     29 C          -1.3385   -8.0407    0.5139 C.ar    1  LIG11      -0.0615
     30 C          -0.7138   -6.8523    0.1223 C.ar    1  LIG11      -0.0585
     31 C           2.1526   -4.4298    3.8976 C.ar    1  LIG11      -0.0231
     32 C           1.2862   -4.1316    4.9539 C.ar    1  LIG11      -0.0150
     33 C           1.7299   -3.3714    6.0391 C.ar    1  LIG11       0.1239
     34 C           3.0249   -2.8466    6.0435 C.ar    1  LIG11       0.0218
     35 C           3.8940   -3.1200    4.9836 C.ar    1  LIG11       0.1239
     36 C           3.4469   -3.9028    3.9122 C.ar    1  LIG11      -0.0150
     37 O           0.8761   -3.1446    7.1186 O.3     1  LIG11      -0.4950
     38 C           0.7551   -4.2671    8.0099 C.3     1  LIG11       0.0788
     39 O           5.2012   -2.6212    5.0264 O.3     1  LIG11      -0.4950
     40 C           6.2458   -3.4776    4.5301 C.3     1  LIG11       0.0788
     41 N           2.7569   -4.0721   -0.6302 N.am    1  LIG11      -0.2752
     42 N           1.6346   -4.5622    1.4894 N.am    1  LIG11      -0.2752
     43 N           4.9873   -3.4992   -6.7282 N.am    1  LIG11      -0.2652
     44 C           6.0002   -1.9509   -9.8576 C.ar    1  LIG11       0.0478
     45 H           3.3253   -5.8420   -1.7421 H       1  LIG11       0.0514
     46 H           4.4480   -4.4791   -1.7953 H       1  LIG11       0.0514
     47 O           3.1605   -5.8613    0.5689 O.2     1  LIG11      -0.2524
     48 O           1.5295   -0.5052   -0.5810 O.3     1  LIG11      -0.3873
     49 O          -0.4600   -1.4743    1.2560 O.3     1  LIG11      -0.3873
     50 O           3.2168   -2.1940   -7.2716 O.2     1  LIG11      -0.2698
     51 H           3.0463   -2.2139   -1.5507 H       1  LIG11       0.0531
     52 C           7.3484   -2.3151   -9.9272 C.ar    1  LIG11       0.0458
     53 H           0.6736   -2.2880   -1.1477 H       1  LIG11       0.0638
     54 N           7.8932   -3.0603   -8.9434 N.ar    1  LIG11      -0.2583
     55 C           7.1466   -3.4542   -7.8911 C.ar    1  LIG11       0.0676
     56 H           1.4869   -1.8847    1.8376 H       1  LIG11       0.0638
     57 H          -0.1162   -3.6801    2.2127 H       1  LIG11       0.0531
     58 H           2.4582   -6.1625    2.7250 H       1  LIG11       0.0514
     59 H           0.7535   -5.8090    2.9491 H       1  LIG11       0.0514
     60 H           4.4903   -3.4923   -3.9602 H       1  LIG11       0.0628
     61 H           1.0836   -3.5919   -6.5779 H       1  LIG11       0.0625
     62 H          -0.2707   -4.6210   -4.7693 H       1  LIG11       0.0618
     63 H           0.8137   -5.2865   -2.6561 H       1  LIG11       0.0621
     64 H           3.7361   -2.6024    1.3764 H       1  LIG11       0.0332
     65 H           3.6506   -1.0035    0.6447 H       1  LIG11       0.0332
     66 H           5.2417   -0.2922   -1.0978 H       1  LIG11       0.0620
     67 H           7.5602   -0.4902   -1.9319 H       1  LIG11       0.0618
     68 H           8.8885   -2.5322   -1.4493 H       1  LIG11       0.0618
     69 H           7.8792   -4.3810   -0.1333 H       1  LIG11       0.0618
     70 H           5.5574   -4.1898    0.7048 H       1  LIG11       0.0620
     71 H           0.0870   -4.4803   -0.6979 H       1  LIG11       0.0332
     72 H          -1.2947   -3.5985   -0.0324 H       1  LIG11       0.0332
     73 H          -2.5007   -4.6605    2.0118 H       1  LIG11       0.0620
     74 H          -3.5844   -6.7658    2.7282 H       1  LIG11       0.0618
     75 H          -2.8496   -8.9358    1.7678 H       1  LIG11       0.0618
     76 H          -1.0239   -8.9879    0.0856 H       1  LIG11       0.0618
     77 H           0.0926   -6.8950   -0.6029 H       1  LIG11       0.0620
     78 H           0.2642   -4.4922    4.9451 H       1  LIG11       0.0657
     79 H           3.3594   -2.2347    6.8746 H       1  LIG11       0.0691
     80 H           4.0977   -4.1264    3.0795 H       1  LIG11       0.0657
     81 H          -0.0110   -4.0299    8.7627 H       1  LIG11       0.0660
     82 H           1.7111   -4.4521    8.5237 H       1  LIG11       0.0660
     83 H           0.4480   -5.1813    7.4775 H       1  LIG11       0.0660
     84 H           7.2115   -3.0938    4.8874 H       1  LIG11       0.0660
     85 H           6.2770   -3.4941    3.4304 H       1  LIG11       0.0660
     86 H           6.1117   -4.5012    4.9151 H       1  LIG11       0.0660
     87 H           5.3371   -4.1920   -6.1016 H       1  LIG11       0.1566
     88 H           5.5424   -1.3626  -10.6452 H       1  LIG11       0.0846
     89 H           0.7122   -0.0200   -0.6392 H       1  LIG11       0.2100
     90 H          -0.3469   -0.5338    1.3535 H       1  LIG11       0.2100
     91 H           7.9601   -2.0030  -10.7661 H       1  LIG11       0.0845
     92 H           7.6004   -4.0546   -7.1110 H       1  LIG11       0.0865
@<TRIPOS>BOND
     1    91    52    1
     2    88    44    1
     3    52    44   ar
     4    52    54   ar
     5    44    16   ar
     6    54    55   ar
     7    16    15   ar
     8    55    15   ar
     9    55    92    1
    10    15    43    1
    11    50    14    2
    12    43    14   am
    13    43    87    1
    14    61    11    1
    15    14    10    1
    16    11    10   ar
    17    11    12   ar
    18    10     9   ar
    19    62    12    1
    20    12    13   ar
    21     9    60    1
    22     9     8   ar
    23    13     8   ar
    24    13    63    1
    25     8     2    1
    26    67    20    1
    27    46     2    1
    28     2    45    1
    29     2    41    1
    30    51     3    1
    31    68    21    1
    32    20    21   ar
    33    20    19   ar
    34    53     4    1
    35    66    19    1
    36    21    22   ar
    37    19    18   ar
    38    71    24    1
    39    89    48    1
    40    41     3    1
    41    41     1   am
    42    77    30    1
    43    48     4    1
    44     3     4    1
    45     3    17    1
    46     4     5    1
    47    22    69    1
    48    22    23   ar
    49    18    23   ar
    50    18    17    1
    51    72    24    1
    52    76    29    1
    53    30    29   ar
    54    30    25   ar
    55    23    70    1
    56    24    25    1
    57    24     6    1
    58    17    65    1
    59    17    64    1
    60     1    47    2
    61     1    42   am
    62    29    28   ar
    63    25    26   ar
    64     5    49    1
    65     5     6    1
    66     5    56    1
    67    49    90    1
    68     6    42    1
    69     6    57    1
    70    28    75    1
    71    28    27   ar
    72    42     7    1
    73    26    27   ar
    74    26    73    1
    75    27    74    1
    76    58     7    1
    77     7    59    1
    78     7    31    1
    79    80    36    1
    80    85    40    1
    81    31    36   ar
    82    31    32   ar
    83    36    35   ar
    84    40    84    1
    85    40    86    1
    86    40    39    1
    87    78    32    1
    88    32    33   ar
    89    35    39    1
    90    35    34   ar
    91    33    34   ar
    92    33    37    1
    93    34    79    1
    94    37    38    1
    95    83    38    1
    96    38    82    1
    97    38    81    1
