@<TRIPOS>MOLECULE
Mol_06
 88 90 0 0 0
SMALL
GASTEIGER
Energy = 0

@<TRIPOS>ATOM
      1 C           2.8773   -4.7183   -0.1023 C.2     1  LIG11       0.3054
      2 C           2.3987   -5.2731    2.2213 C.3     1  LIG11       0.0165
      3 C           0.9098   -3.6640    0.9359 C.3     1  LIG11       0.0598
      4 C           1.1191   -2.1401    0.7700 C.3     1  LIG11       0.1016
      5 C           1.6312   -1.7842   -0.6472 C.3     1  LIG11       0.1016
      6 C           3.0227   -2.4045   -0.9248 C.3     1  LIG11       0.0598
      7 C           3.4637   -4.3925   -2.4439 C.3     1  LIG11       0.0165
      8 C           2.9778   -4.3589    3.3468 C.3     1  LIG11      -0.0371
      9 C           2.0496   -4.2975    4.5864 C.3     1  LIG11      -0.0516
     10 C           2.7739   -3.6900    5.8207 C.3     1  LIG11      -0.0530
     11 C           1.8261   -3.5364    7.0470 C.3     1  LIG11      -0.0533
     12 C           1.8651   -4.7495    8.0205 C.3     1  LIG11      -0.0559
     13 C           1.3971   -6.0790    7.3735 C.3     1  LIG11      -0.0653
     14 H           3.1076   -6.1033    2.0697 H       1  LIG11       0.0465
     15 H           1.4607   -5.7619    2.5284 H       1  LIG11       0.0465
     16 H           0.3958   -3.7248    1.9108 H       1  LIG11       0.0530
     17 H           1.8451   -1.8125    1.5312 H       1  LIG11       0.0638
     18 C          -0.1168   -4.2685   -0.0674 C.3     1  LIG11      -0.0064
     19 C          -0.6258   -5.6422    0.3989 C.ar    1  LIG11      -0.0455
     20 C          -0.0453   -6.8217   -0.0820 C.ar    1  LIG11      -0.0585
     21 C          -0.5283   -8.0677    0.3305 C.ar    1  LIG11      -0.0615
     22 C          -1.5900   -8.1434    1.2356 C.ar    1  LIG11      -0.0617
     23 C          -2.1707   -6.9695    1.7237 C.ar    1  LIG11      -0.0615
     24 C          -1.6890   -5.7254    1.3065 C.ar    1  LIG11      -0.0585
     25 C           4.1309   -1.9755    0.0804 C.3     1  LIG11      -0.0064
     26 C           5.5451   -2.2220   -0.4717 C.ar    1  LIG11      -0.0455
     27 C           6.2036   -3.4363   -0.2366 C.ar    1  LIG11      -0.0585
     28 C           7.5046   -3.6388   -0.7048 C.ar    1  LIG11      -0.0615
     29 C           8.1557   -2.6320   -1.4246 C.ar    1  LIG11      -0.0617
     30 C           7.4998   -1.4250   -1.6754 C.ar    1  LIG11      -0.0615
     31 C           6.1974   -1.2249   -1.2052 C.ar    1  LIG11      -0.0585
     32 C           2.3757   -4.1120   -3.5164 C.3     1  LIG11      -0.0371
     33 C           2.8260   -4.5763   -4.9310 C.3     1  LIG11      -0.0516
     34 C           3.6121   -3.4584   -5.6661 C.3     1  LIG11      -0.0530
     35 C           4.0436   -3.9094   -7.0868 C.3     1  LIG11      -0.0533
     36 C           4.5867   -2.7249   -7.9334 C.3     1  LIG11      -0.0559
     37 C           5.8482   -2.0772   -7.3050 C.3     1  LIG11      -0.0653
     38 H           0.9384   -2.1640   -1.4159 H       1  LIG11       0.0638
     39 H           3.3351   -1.9071   -1.8591 H       1  LIG11       0.0530
     40 H           3.6174   -5.4841   -2.4420 H       1  LIG11       0.0465
     41 H           4.4253   -3.9356   -2.7227 H       1  LIG11       0.0465
     42 N           2.1219   -4.4895    1.0080 N.am    1  LIG11      -0.2796
     43 N           3.0351   -3.8554   -1.1447 N.am    1  LIG11      -0.2796
     44 H           3.1163   -3.3279    2.9943 H       1  LIG11       0.0280
     45 H           3.9712   -4.7261    3.6555 H       1  LIG11       0.0280
     46 H           1.7181   -5.3169    4.8093 H       1  LIG11       0.0266
     47 H           1.1583   -3.6981    4.3381 H       1  LIG11       0.0266
     48 O           3.4631   -5.7860   -0.1701 O.2     1  LIG11      -0.2524
     49 O          -0.1371   -1.4920    1.0609 O.3     1  LIG11      -0.3873
     50 O           1.7302   -0.3561   -0.8211 O.3     1  LIG11      -0.3873
     51 H           3.1602   -2.6987    5.5294 H       1  LIG11       0.0265
     52 H           3.6407   -4.3131    6.0967 H       1  LIG11       0.0265
     53 H           0.7899   -3.3644    6.7124 H       1  LIG11       0.0265
     54 H           2.1302   -2.6449    7.6226 H       1  LIG11       0.0265
     55 H           1.2031   -4.5241    8.8738 H       1  LIG11       0.0263
     56 H           2.8874   -4.8777    8.4150 H       1  LIG11       0.0263
     57 H           0.4694   -5.9218    6.8008 H       1  LIG11       0.0230
     58 H           1.1975   -6.8327    8.1497 H       1  LIG11       0.0230
     59 H           2.1782   -6.4869    6.7140 H       1  LIG11       0.0230
     60 H           0.3303   -4.3885   -1.0624 H       1  LIG11       0.0332
     61 H          -0.9859   -3.5998   -0.1745 H       1  LIG11       0.0332
     62 H           0.7841   -6.7781   -0.7811 H       1  LIG11       0.0620
     63 H          -0.0783   -8.9784   -0.0532 H       1  LIG11       0.0618
     64 H          -1.9630   -9.1108    1.5590 H       1  LIG11       0.0618
     65 H          -2.9968   -7.0257    2.4263 H       1  LIG11       0.0618
     66 H          -2.1488   -4.8206    1.6915 H       1  LIG11       0.0620
     67 H           4.0460   -2.5323    1.0194 H       1  LIG11       0.0332
     68 H           4.0292   -0.9048    0.3191 H       1  LIG11       0.0332
     69 H           5.7080   -4.2288    0.3150 H       1  LIG11       0.0620
     70 H           8.0130   -4.5782   -0.5092 H       1  LIG11       0.0618
     71 H           9.1674   -2.7884   -1.7871 H       1  LIG11       0.0618
     72 H           8.0021   -0.6412   -2.2344 H       1  LIG11       0.0618
     73 H           5.6971   -0.2843   -1.4124 H       1  LIG11       0.0620
     74 H           2.1145   -3.0432   -3.5501 H       1  LIG11       0.0280
     75 H           1.4641   -4.6582   -3.2262 H       1  LIG11       0.0280
     76 H           1.9343   -4.8252   -5.5298 H       1  LIG11       0.0266
     77 H           3.4459   -5.4855   -4.8618 H       1  LIG11       0.0266
     78 H           4.4957   -3.1859   -5.0686 H       1  LIG11       0.0265
     79 H           2.9668   -2.5695   -5.7610 H       1  LIG11       0.0265
     80 H           3.1737   -4.3357   -7.6141 H       1  LIG11       0.0265
     81 H           4.8097   -4.6983   -7.0047 H       1  LIG11       0.0265
     82 H           3.8024   -1.9576   -8.0499 H       1  LIG11       0.0263
     83 H           4.8399   -3.1025   -8.9385 H       1  LIG11       0.0263
     84 H           6.2939   -1.3604   -8.0118 H       1  LIG11       0.0230
     85 H           6.5962   -2.8500   -7.0697 H       1  LIG11       0.0230
     86 H           5.5974   -1.5308   -6.3831 H       1  LIG11       0.0230
     87 H          -0.0640   -0.5504    1.1832 H       1  LIG11       0.2100
     88 H           0.8843    0.0814   -0.8432 H       1  LIG11       0.2100
@<TRIPOS>BOND
     1    83    36    1
     2    82    36    1
     3    84    37    1
     4    36    37    1
     5    36    35    1
     6    80    35    1
     7    37    85    1
     8    37    86    1
     9    35    81    1
    10    35    34    1
    11    79    34    1
    12    34    78    1
    13    34    33    1
    14    76    33    1
    15    33    77    1
    16    33    32    1
    17    74    32    1
    18    32    75    1
    19    32     7    1
    20    41     7    1
    21     7    40    1
    22     7    43    1
    23    72    30    1
    24    39     6    1
    25    71    29    1
    26    30    29   ar
    27    30    31   ar
    28    29    28   ar
    29    38     5    1
    30    73    31    1
    31    31    26   ar
    32    43     6    1
    33    43     1   am
    34    60    18    1
    35     6     5    1
    36     6    25    1
    37    88    50    1
    38    50     5    1
    39    62    20    1
    40    28    70    1
    41    28    27   ar
    42     5     4    1
    43    26    27   ar
    44    26    25    1
    45    27    69    1
    46    61    18    1
    47    48     1    2
    48     1    42   am
    49    20    21   ar
    50    20    19   ar
    51    18    19    1
    52    18     3    1
    53    63    21    1
    54    25    68    1
    55    25    67    1
    56    21    22   ar
    57    19    24   ar
    58     4     3    1
    59     4    49    1
    60     4    17    1
    61     3    42    1
    62     3    16    1
    63    42     2    1
    64    49    87    1
    65    22    64    1
    66    22    23   ar
    67    24    66    1
    68    24    23   ar
    69    23    65    1
    70    14     2    1
    71     2    15    1
    72     2     8    1
    73    44     8    1
    74     8    45    1
    75     8     9    1
    76    47     9    1
    77     9    46    1
    78     9    10    1
    79    51    10    1
    80    10    52    1
    81    10    11    1
    82    53    11    1
    83    59    13    1
    84    57    13    1
    85    11    54    1
    86    11    12    1
    87    13    12    1
    88    13    58    1
    89    12    56    1
    90    12    55    1
