@<TRIPOS>MOLECULE
Mol_59
 78 83 0 0 0
SMALL
GASTEIGER
Energy = 0

@<TRIPOS>ATOM
      1 C           3.4095   -5.0047   -0.4031 C.2     1  LIG11       0.3060
      2 C           3.0413   -5.8759    1.8431 C.3     1  LIG11       0.0416
      3 C           1.4587   -4.1533    0.8498 C.3     1  LIG11       0.0601
      4 C           1.6372   -2.6170    0.8523 C.3     1  LIG11       0.1016
      5 C           2.0508   -2.0812   -0.5433 C.3     1  LIG11       0.1016
      6 C           3.4293   -2.6149   -0.9980 C.3     1  LIG11       0.0601
      7 C           3.9277   -4.4136   -2.7202 C.3     1  LIG11       0.0416
      8 C           3.0869   -5.1339    3.1906 C.ar    1  LIG11      -0.0295
      9 C           2.1202   -5.3496    4.1792 C.ar    1  LIG11      -0.0493
     10 C           2.1410   -4.6179    5.3748 C.ar    1  LIG11      -0.0176
     11 C           3.1256   -3.6418    5.5774 C.ar    1  LIG11      -0.0179
     12 C           4.1053   -3.4385    4.6010 C.ar    1  LIG11      -0.0537
     13 C           4.1154   -4.2210    3.4433 C.ar    1  LIG11      -0.0565
     14 C           1.1871   -4.8517    6.3720 C.ar    1  LIG11      -0.0540
     15 C           1.2027   -4.1075    7.5557 C.ar    1  LIG11      -0.0612
     16 C           2.1706   -3.1183    7.7453 C.ar    1  LIG11      -0.0612
     17 C           3.1274   -2.8831    6.7552 C.ar    1  LIG11      -0.0540
     18 C           0.3819   -4.6406   -0.1643 C.3     1  LIG11      -0.0064
     19 C          -0.3876   -5.8833    0.3167 C.ar    1  LIG11      -0.0455
     20 C          -1.5686   -5.7199    1.0512 C.ar    1  LIG11      -0.0585
     21 C          -2.2937   -6.8302    1.4923 C.ar    1  LIG11      -0.0615
     22 C          -1.8407   -8.1191    1.2004 C.ar    1  LIG11      -0.0617
     23 C          -0.6662   -8.2907    0.4621 C.ar    1  LIG11      -0.0615
     24 C           0.0596   -7.1774    0.0245 C.ar    1  LIG11      -0.0585
     25 C           4.5900   -2.2398   -0.0305 C.3     1  LIG11      -0.0064
     26 C           5.9737   -2.3296   -0.6981 C.ar    1  LIG11      -0.0455
     27 C           6.7163   -3.5162   -0.6582 C.ar    1  LIG11      -0.0585
     28 C           7.9891   -3.5763   -1.2350 C.ar    1  LIG11      -0.0615
     29 C           8.5258   -2.4528   -1.8697 C.ar    1  LIG11      -0.0617
     30 C           7.7850   -1.2694   -1.9254 C.ar    1  LIG11      -0.0615
     31 C           6.5149   -1.2110   -1.3436 C.ar    1  LIG11      -0.0585
     32 C           2.8508   -4.1373   -3.7877 C.ar    1  LIG11      -0.0299
     33 C           1.6736   -4.8958   -3.8152 C.ar    1  LIG11      -0.0544
     34 C           0.6777   -4.6442   -4.7643 C.ar    1  LIG11      -0.0261
     35 C           0.8969   -3.6989   -5.7679 C.ar    1  LIG11       0.1234
     36 C           2.0818   -2.9599   -5.7722 C.ar    1  LIG11      -0.0261
     37 C           3.0350   -3.1517   -4.7662 C.ar    1  LIG11      -0.0544
     38 F          -0.0165   -3.5063   -6.7172 F       1  LIG11      -0.2055
     39 H           4.0319   -6.3456    1.7303 H       1  LIG11       0.0514
     40 H           2.2959   -6.6858    1.8591 H       1  LIG11       0.0514
     41 H           0.9943   -4.3446    1.8324 H       1  LIG11       0.0531
     42 N           2.6984   -4.9380    0.7613 N.am    1  LIG11      -0.2752
     43 N           3.4905   -4.0356   -1.3634 N.am    1  LIG11      -0.2752
     44 H           2.3960   -2.3707    1.6145 H       1  LIG11       0.0638
     45 H           1.3241   -2.3899   -1.3134 H       1  LIG11       0.0638
     46 H           3.6320   -2.0175   -1.9047 H       1  LIG11       0.0531
     47 H           4.1740   -5.4795   -2.8373 H       1  LIG11       0.0514
     48 O           4.0360   -6.0326   -0.5986 O.2     1  LIG11      -0.2524
     49 O           0.3792   -2.0456    1.2679 O.3     1  LIG11      -0.3873
     50 O           2.1260   -0.6398   -0.5459 O.3     1  LIG11      -0.3873
     51 H           4.8512   -3.8626   -2.9577 H       1  LIG11       0.0514
     52 H           1.3464   -6.0927    4.0165 H       1  LIG11       0.0627
     53 H           4.8683   -2.6773    4.7348 H       1  LIG11       0.0624
     54 H           4.9350   -4.1188    2.7436 H       1  LIG11       0.0621
     55 H           0.4254   -5.6137    6.2381 H       1  LIG11       0.0624
     56 H           0.4634   -4.2972    8.3278 H       1  LIG11       0.0618
     57 H           2.1797   -2.5342    8.6611 H       1  LIG11       0.0618
     58 H           3.8721   -2.1085    6.9110 H       1  LIG11       0.0624
     59 H           0.8626   -4.8577   -1.1198 H       1  LIG11       0.0332
     60 H          -0.3660   -3.8557   -0.3552 H       1  LIG11       0.0332
     61 H          -1.9339   -4.7243    1.2829 H       1  LIG11       0.0620
     62 H          -3.2087   -6.6909    2.0606 H       1  LIG11       0.0618
     63 H          -2.4010   -8.9827    1.5467 H       1  LIG11       0.0618
     64 H          -0.3196   -9.2931    0.2286 H       1  LIG11       0.0618
     65 H           0.9719   -7.3237   -0.5455 H       1  LIG11       0.0620
     66 H           4.5825   -2.9155    0.8288 H       1  LIG11       0.0332
     67 H           4.4607   -1.2174    0.3587 H       1  LIG11       0.0332
     68 H           6.3098   -4.3993   -0.1756 H       1  LIG11       0.0620
     69 H           8.5640   -4.4965   -1.1900 H       1  LIG11       0.0618
     70 H           9.5143   -2.4984   -2.3177 H       1  LIG11       0.0618
     71 H           8.1980   -0.3951   -2.4200 H       1  LIG11       0.0618
     72 H           5.9508   -0.2851   -1.3940 H       1  LIG11       0.0620
     73 H           1.5306   -5.7017   -3.1060 H       1  LIG11       0.0622
     74 H          -0.2637   -5.1839   -4.7335 H       1  LIG11       0.0646
     75 H           2.2565   -2.2385   -6.5637 H       1  LIG11       0.0646
     76 H           3.9257   -2.5323   -4.7600 H       1  LIG11       0.0622
     77 H           0.4256   -1.1138    1.4559 H       1  LIG11       0.2100
     78 H           1.2785   -0.2086   -0.4950 H       1  LIG11       0.2100
@<TRIPOS>BOND
     1    38    35    1
     2    75    36    1
     3    36    35   ar
     4    36    37   ar
     5    35    34   ar
     6    37    76    1
     7    37    32   ar
     8    34    74    1
     9    34    33   ar
    10    33    32   ar
    11    33    73    1
    12    32     7    1
    13    51     7    1
    14    47     7    1
    15     7    43    1
    16    71    30    1
    17    70    29    1
    18    30    29   ar
    19    30    31   ar
    20    46     6    1
    21    29    28   ar
    22    72    31    1
    23    43     6    1
    24    43     1   am
    25    31    26   ar
    26    45     5    1
    27    28    69    1
    28    28    27   ar
    29    59    18    1
    30     6     5    1
    31     6    25    1
    32    26    27   ar
    33    26    25    1
    34    27    68    1
    35    48     1    2
    36    50     5    1
    37    50    78    1
    38    65    24    1
    39     5     4    1
    40     1    42   am
    41    60    18    1
    42    18    19    1
    43    18     3    1
    44    25    67    1
    45    25    66    1
    46    24    19   ar
    47    24    23   ar
    48    64    23    1
    49    19    20   ar
    50    23    22   ar
    51    42     3    1
    52    42     2    1
    53     3     4    1
    54     3    41    1
    55     4    49    1
    56     4    44    1
    57    20    61    1
    58    20    21   ar
    59    22    21   ar
    60    22    63    1
    61    49    77    1
    62    21    62    1
    63    39     2    1
    64     2    40    1
    65     2     8    1
    66    54    13    1
    67     8    13   ar
    68     8     9   ar
    69    13    12   ar
    70    52     9    1
    71     9    10   ar
    72    12    53    1
    73    12    11   ar
    74    10    11   ar
    75    10    14   ar
    76    11    17   ar
    77    55    14    1
    78    14    15   ar
    79    17    58    1
    80    17    16   ar
    81    15    16   ar
    82    15    56    1
    83    16    57    1
