@<TRIPOS>MOLECULE
Mol_24
 84 90 0 0 0
SMALL
GASTEIGER
Energy = 0

@<TRIPOS>ATOM
      1 C           2.8034   -4.9165   -0.0345 C.2     1  LIG11       0.3060
      2 C           2.1558   -5.5693    2.2386 C.3     1  LIG11       0.0422
      3 C           0.7731   -3.8901    0.9325 C.3     1  LIG11       0.0601
      4 C           0.9657   -2.3743    0.6987 C.3     1  LIG11       0.1016
      5 C           1.4918   -2.0683   -0.7283 C.3     1  LIG11       0.1016
      6 C           2.9225   -2.6195   -0.9513 C.3     1  LIG11       0.0601
      7 C           3.6953   -4.6299   -2.2925 C.3     1  LIG11       0.0422
      8 C           3.7976   -4.1716    3.4812 C.ar    1  LIG11      -0.0565
      9 C           2.5324   -4.7743    3.5129 C.ar    1  LIG11      -0.0224
     10 C           1.7465   -4.6448    4.6761 C.ar    1  LIG11      -0.0132
     11 C           2.2930   -4.0140    5.8094 C.ar    1  LIG11      -0.0176
     12 C           3.5695   -3.4412    5.7633 C.ar    1  LIG11      -0.0540
     13 C           4.3138   -3.4950    4.5868 C.ar    1  LIG11      -0.0609
     14 C           0.4291   -5.1242    4.7803 C.ar    1  LIG11      -0.0537
     15 C           4.6058   -2.2173   -6.9650 C.ar    1  LIG11      -0.0612
     16 C           5.4117   -2.4740   -5.8571 C.ar    1  LIG11      -0.0612
     17 C           4.8807   -3.1174   -4.7356 C.ar    1  LIG11      -0.0537
     18 C          -0.2484   -4.5320   -0.0523 C.3     1  LIG11      -0.0064
     19 C          -0.8608   -5.8267    0.5032 C.ar    1  LIG11      -0.0455
     20 C          -0.3400   -7.0820    0.1653 C.ar    1  LIG11      -0.0585
     21 C          -0.9154   -8.2466    0.6837 C.ar    1  LIG11      -0.0615
     22 C          -2.0126   -8.1635    1.5455 C.ar    1  LIG11      -0.0617
     23 C          -2.5412   -6.9138    1.8787 C.ar    1  LIG11      -0.0615
     24 C          -1.9676   -5.7515    1.3563 C.ar    1  LIG11      -0.0585
     25 C           3.9720   -2.0499    0.0522 C.3     1  LIG11      -0.0064
     26 C           5.4298   -2.2732   -0.3917 C.ar    1  LIG11      -0.0455
     27 C           6.1607   -1.2423   -0.9962 C.ar    1  LIG11      -0.0585
     28 C           7.4885   -1.4437   -1.3862 C.ar    1  LIG11      -0.0615
     29 C           8.0969   -2.6856   -1.1872 C.ar    1  LIG11      -0.0617
     30 C           7.3760   -3.7196   -0.5848 C.ar    1  LIG11      -0.0615
     31 C           6.0542   -3.5089   -0.1814 C.ar    1  LIG11      -0.0585
     32 C           2.9803   -4.2496   -3.6098 C.ar    1  LIG11      -0.0224
     33 C           3.5430   -3.5453   -4.6949 C.ar    1  LIG11      -0.0132
     34 C           2.7392   -3.2609   -5.8145 C.ar    1  LIG11      -0.0176
     35 C           1.3902   -3.6319   -5.8446 C.ar    1  LIG11      -0.0540
     36 C           0.8404   -4.3460   -4.7819 C.ar    1  LIG11      -0.0609
     37 C           1.6549   -4.6895   -3.7034 C.ar    1  LIG11      -0.0565
     38 C           3.2665   -2.6048   -6.9350 C.ar    1  LIG11      -0.0540
     39 C          -0.2847   -5.0485    5.9796 C.ar    1  LIG11      -0.0612
     40 C           0.2905   -4.4603    7.1058 C.ar    1  LIG11      -0.0612
     41 C           1.5822   -3.9414    7.0140 C.ar    1  LIG11      -0.0540
     42 N           1.9830   -4.7140    1.0437 N.am    1  LIG11      -0.2752
     43 N           3.0327   -4.0774   -1.0924 N.am    1  LIG11      -0.2752
     44 H           1.2630   -6.1939    2.3427 H       1  LIG11       0.0515
     45 H           2.9769   -6.2973    2.1534 H       1  LIG11       0.0515
     46 H           0.2611   -3.9131    1.9104 H       1  LIG11       0.0531
     47 H           1.6646   -2.0101    1.4690 H       1  LIG11       0.0638
     48 O           3.4070   -5.9757   -0.0597 O.2     1  LIG11      -0.2524
     49 O          -0.3096   -1.7422    0.9406 O.3     1  LIG11      -0.3873
     50 O           1.5131   -0.6459   -0.9663 O.3     1  LIG11      -0.3873
     51 H           0.8458   -2.5242   -1.4976 H       1  LIG11       0.0638
     52 H           3.2153   -2.1664   -1.9155 H       1  LIG11       0.0531
     53 H           3.7188   -5.7303   -2.3270 H       1  LIG11       0.0515
     54 H           4.7394   -4.3222   -2.2401 H       1  LIG11       0.0515
     55 H           4.4074   -4.2382    2.5882 H       1  LIG11       0.0621
     56 H           3.9954   -2.9517    6.6349 H       1  LIG11       0.0624
     57 H           5.2895   -3.0197    4.5369 H       1  LIG11       0.0618
     58 H          -0.0909   -5.5673    3.9433 H       1  LIG11       0.0624
     59 H           5.0167   -1.7221   -7.8397 H       1  LIG11       0.0618
     60 H           6.4552   -2.1731   -5.8688 H       1  LIG11       0.0618
     61 H           5.5680   -3.2631   -3.9164 H       1  LIG11       0.0624
     62 H           0.2426   -4.7615   -1.0000 H       1  LIG11       0.0332
     63 H          -1.0743   -3.8381   -0.2756 H       1  LIG11       0.0332
     64 H           0.5136   -7.1605   -0.5012 H       1  LIG11       0.0620
     65 H          -0.5108   -9.2186    0.4173 H       1  LIG11       0.0618
     66 H          -2.4545   -9.0670    1.9552 H       1  LIG11       0.0618
     67 H          -3.3979   -6.8452    2.5423 H       1  LIG11       0.0618
     68 H          -2.3895   -4.7858    1.6160 H       1  LIG11       0.0620
     69 H           3.8632   -2.5214    1.0354 H       1  LIG11       0.0332
     70 H           3.8055   -0.9692    0.1879 H       1  LIG11       0.0332
     71 H           5.7038   -0.2724   -1.1641 H       1  LIG11       0.0620
     72 H           8.0503   -0.6344   -1.8434 H       1  LIG11       0.0618
     73 H           9.1251   -2.8463   -1.4979 H       1  LIG11       0.0618
     74 H           7.8437   -4.6874   -0.4301 H       1  LIG11       0.0618
     75 H           5.5142   -4.3195    0.2947 H       1  LIG11       0.0620
     76 H           0.7569   -3.3788   -6.6902 H       1  LIG11       0.0624
     77 H          -0.2061   -4.6370   -4.7986 H       1  LIG11       0.0618
     78 H           1.2442   -5.3262   -2.9325 H       1  LIG11       0.0621
     79 H           2.6432   -2.3908   -7.7982 H       1  LIG11       0.0624
     80 H          -1.2933   -5.4473    6.0405 H       1  LIG11       0.0618
     81 H          -0.2592   -4.4049    8.0409 H       1  LIG11       0.0618
     82 H           2.0223   -3.4821    7.8947 H       1  LIG11       0.0624
     83 H          -0.2579   -0.7979    1.0529 H       1  LIG11       0.2100
     84 H           0.6440   -0.2585   -1.0140 H       1  LIG11       0.2100
@<TRIPOS>BOND
     1    59    15    1
     2    79    38    1
     3    15    38   ar
     4    15    16   ar
     5    38    34   ar
     6    76    35    1
     7    60    16    1
     8    16    17   ar
     9    35    34   ar
    10    35    36   ar
    11    34    33   ar
    12    77    36    1
    13    36    37   ar
    14    17    33   ar
    15    17    61    1
    16    33    32   ar
    17    37    32   ar
    18    37    78    1
    19    32     7    1
    20    53     7    1
    21     7    54    1
    22     7    43    1
    23    52     6    1
    24    72    28    1
    25    73    29    1
    26    51     5    1
    27    28    29   ar
    28    28    27   ar
    29    29    30   ar
    30    71    27    1
    31    43     6    1
    32    43     1   am
    33    84    50    1
    34    62    18    1
    35    27    26   ar
    36    50     5    1
    37     6     5    1
    38     6    25    1
    39     5     4    1
    40    30    74    1
    41    30    31   ar
    42    64    20    1
    43    26    31   ar
    44    26    25    1
    45    63    18    1
    46    31    75    1
    47    48     1    2
    48    18    19    1
    49    18     3    1
    50     1    42   am
    51    25    70    1
    52    25    69    1
    53    20    19   ar
    54    20    21   ar
    55    65    21    1
    56    19    24   ar
    57    21    22   ar
    58     4     3    1
    59     4    49    1
    60     4    47    1
    61     3    42    1
    62     3    46    1
    63    49    83    1
    64    42     2    1
    65    24    68    1
    66    24    23   ar
    67    22    23   ar
    68    22    66    1
    69    23    67    1
    70    45     2    1
    71     2    44    1
    72     2     9    1
    73    55     8    1
    74     8     9   ar
    75     8    13   ar
    76     9    10   ar
    77    58    14    1
    78    57    13    1
    79    13    12   ar
    80    10    14   ar
    81    10    11   ar
    82    14    39   ar
    83    12    11   ar
    84    12    56    1
    85    11    41   ar
    86    39    80    1
    87    39    40   ar
    88    41    40   ar
    89    41    82    1
    90    40    81    1
