@<TRIPOS>MOLECULE
Mol_19
 72 76 0 0 0
SMALL
GASTEIGER
Energy = 0

@<TRIPOS>ATOM
      1 C           2.9409   -4.5896   -0.0485 C.2     1  LIG11       0.3054
      2 C           2.3669   -5.1083    2.2729 C.3     1  LIG11       0.0194
      3 C           0.8616   -3.6105    0.8562 C.3     1  LIG11       0.0598
      4 C           0.9981   -2.0893    0.6138 C.3     1  LIG11       0.1016
      5 C           1.5712   -1.7536   -0.7763 C.3     1  LIG11       0.1016
      6 C           3.0039   -2.2992   -0.9907 C.3     1  LIG11       0.0598
      7 C           3.7390   -4.3184   -2.3496 C.3     1  LIG11       0.0194
      8 C           3.2191   -4.2296    3.2280 C.3     1  LIG11      -0.0251
      9 C           3.3392   -4.7150    4.6964 C.3     1  LIG11      -0.0488
     10 C           3.0793   -5.0271   -4.7935 C.3     1  LIG11      -0.0488
     11 C           2.1255   -4.0081   -5.4620 C.3     1  LIG11      -0.0525
     12 C           2.0870   -3.2248   -4.1299 C.3     1  LIG11      -0.0488
     13 C           3.2310   -3.2378    5.1450 C.3     1  LIG11      -0.0525
     14 C           2.5948   -2.9194    3.7726 C.3     1  LIG11      -0.0488
     15 H           2.9191   -6.0521    2.1346 H       1  LIG11       0.0468
     16 H           1.4251   -5.3947    2.7646 H       1  LIG11       0.0468
     17 H           0.3063   -3.6301    1.8079 H       1  LIG11       0.0530
     18 C          -0.0788   -4.3289   -0.1525 C.3     1  LIG11      -0.0064
     19 C          -0.5750   -5.6702    0.4053 C.ar    1  LIG11      -0.0455
     20 C          -0.0005   -6.8755   -0.0116 C.ar    1  LIG11      -0.0585
     21 C          -0.4912   -8.0930    0.4708 C.ar    1  LIG11      -0.0615
     22 C          -1.5431   -8.1108    1.3902 C.ar    1  LIG11      -0.0617
     23 C          -2.1079   -6.9083    1.8249 C.ar    1  LIG11      -0.0615
     24 C          -1.6242   -5.6932    1.3331 C.ar    1  LIG11      -0.0585
     25 C           4.0725   -1.7270   -0.0174 C.3     1  LIG11      -0.0064
     26 C           5.5013   -2.0126   -0.5091 C.ar    1  LIG11      -0.0455
     27 C           6.0885   -3.2612   -0.2718 C.ar    1  LIG11      -0.0585
     28 C           7.3931   -3.5263   -0.6930 C.ar    1  LIG11      -0.0615
     29 C           8.1317   -2.5351   -1.3460 C.ar    1  LIG11      -0.0617
     30 C           7.5531   -1.2881   -1.5909 C.ar    1  LIG11      -0.0615
     31 C           6.2388   -1.0327   -1.1844 C.ar    1  LIG11      -0.0585
     32 C           2.6242   -4.4912   -3.4139 C.3     1  LIG11      -0.0251
     33 H           1.6602   -1.6796    1.3855 H       1  LIG11       0.0638
     34 H           0.9228   -2.1944   -1.5454 H       1  LIG11       0.0638
     35 H           3.2748   -1.8337   -1.9507 H       1  LIG11       0.0530
     36 H           4.1993   -5.3111   -2.2210 H       1  LIG11       0.0468
     37 H           4.5387   -3.6670   -2.7360 H       1  LIG11       0.0468
     38 H           4.2193   -4.0293    2.8049 H       1  LIG11       0.0316
     39 H           4.2714   -5.2343    4.9683 H       1  LIG11       0.0268
     40 H           2.4537   -5.2834    5.0282 H       1  LIG11       0.0268
     41 H           2.8593   -6.0886   -4.9899 H       1  LIG11       0.0268
     42 N           2.1083   -4.3747    1.0157 N.am    1  LIG11      -0.2793
     43 N           3.1488   -3.7573   -1.1171 N.am    1  LIG11      -0.2793
     44 H           4.1340   -4.7883   -5.0095 H       1  LIG11       0.0268
     45 H           1.1440   -4.4560   -5.6929 H       1  LIG11       0.0265
     46 H           2.5300   -3.4603   -6.3286 H       1  LIG11       0.0265
     47 H           1.0861   -2.8777   -3.8312 H       1  LIG11       0.0268
     48 O           3.5661   -5.6370   -0.0401 O.2     1  LIG11      -0.2524
     49 O          -0.2410   -1.3811    0.8179 O.3     1  LIG11      -0.3873
     50 O           1.4766   -0.3338   -1.0060 O.3     1  LIG11      -0.3873
     51 H           2.8099   -2.3945   -4.1713 H       1  LIG11       0.0268
     52 H           4.2271   -2.7707    5.2381 H       1  LIG11       0.0265
     53 H           2.6083   -3.0272    6.0294 H       1  LIG11       0.0265
     54 H           2.9423   -1.9742    3.3300 H       1  LIG11       0.0268
     55 H           1.4951   -2.9628    3.8367 H       1  LIG11       0.0268
     56 H           0.4342   -4.4915   -1.1088 H       1  LIG11       0.0332
     57 H          -0.9769   -3.7310   -0.3602 H       1  LIG11       0.0332
     58 H           0.8275   -6.8729   -0.7136 H       1  LIG11       0.0620
     59 H          -0.0543   -9.0263    0.1293 H       1  LIG11       0.0618
     60 H          -1.9218   -9.0561    1.7669 H       1  LIG11       0.0618
     61 H          -2.9228   -6.9192    2.5427 H       1  LIG11       0.0618
     62 H          -2.0719   -4.7650    1.6750 H       1  LIG11       0.0620
     63 H           3.9580   -2.1654    0.9819 H       1  LIG11       0.0332
     64 H           3.9660   -0.6372    0.0811 H       1  LIG11       0.0332
     65 H           5.5357   -4.0347    0.2469 H       1  LIG11       0.0620
     66 H           7.8338   -4.5015   -0.5103 H       1  LIG11       0.0618
     67 H           9.1515   -2.7354   -1.6599 H       1  LIG11       0.0618
     68 H           8.1255   -0.5158   -2.0963 H       1  LIG11       0.0618
     69 H           5.8009   -0.0623   -1.3964 H       1  LIG11       0.0620
     70 H           1.7957   -5.1096   -3.0301 H       1  LIG11       0.0316
     71 H          -0.8544   -1.4521    0.0940 H       1  LIG11       0.2100
     72 H           1.8296    0.1976   -0.3001 H       1  LIG11       0.2100
@<TRIPOS>BOND
     1    46    11    1
     2    45    11    1
     3    11    10    1
     4    11    12    1
     5    44    10    1
     6    41    10    1
     7    10    32    1
     8    51    12    1
     9    12    47    1
    10    12    32    1
    11    32    70    1
    12    32     7    1
    13    37     7    1
    14     7    36    1
    15     7    43    1
    16    68    30    1
    17    35     6    1
    18    67    29    1
    19    30    29   ar
    20    30    31   ar
    21    34     5    1
    22    69    31    1
    23    29    28   ar
    24    31    26   ar
    25    43     6    1
    26    43     1   am
    27    56    18    1
    28    50     5    1
    29    50    72    1
    30     6     5    1
    31     6    25    1
    32     5     4    1
    33    58    20    1
    34    28    66    1
    35    28    27   ar
    36    26    27   ar
    37    26    25    1
    38    57    18    1
    39    27    65    1
    40    18    19    1
    41    18     3    1
    42     1    48    2
    43     1    42   am
    44    25    64    1
    45    25    63    1
    46    20    19   ar
    47    20    21   ar
    48    71    49    1
    49    59    21    1
    50    19    24   ar
    51    21    22   ar
    52     4    49    1
    53     4     3    1
    54     4    33    1
    55     3    42    1
    56     3    17    1
    57    42     2    1
    58    24    62    1
    59    24    23   ar
    60    22    60    1
    61    22    23   ar
    62    23    61    1
    63    15     2    1
    64     2    16    1
    65     2     8    1
    66    38     8    1
    67     8    14    1
    68     8     9    1
    69    54    14    1
    70    14    55    1
    71    14    13    1
    72     9    39    1
    73     9    40    1
    74     9    13    1
    75    13    52    1
    76    13    53    1
