@<TRIPOS>MOLECULE
Mol_42
 76 80 0 0 0
SMALL
GASTEIGER
Energy = 0

@<TRIPOS>ATOM
      1 C           2.8555   -4.9935   -0.0213 C.2     1  LIG11       0.3060
      2 C           3.5882   -4.7711   -2.3365 C.3     1  LIG11       0.0416
      3 C           2.9240   -2.7280   -0.9794 C.3     1  LIG11       0.0601
      4 C           1.4983   -2.1715   -0.7450 C.3     1  LIG11       0.1016
      5 C           0.9719   -2.4762    0.6833 C.3     1  LIG11       0.1016
      6 C           0.8226   -3.9937    0.9491 C.3     1  LIG11       0.0601
      7 C           2.3420   -5.5181    2.2977 C.3     1  LIG11       0.0416
      8 C           2.8810   -4.3350   -3.6360 C.ar    1  LIG11      -0.0283
      9 C           1.5164   -4.5825   -3.8192 C.ar    1  LIG11      -0.0570
     10 C           0.8560   -4.1728   -4.9795 C.ar    1  LIG11      -0.0597
     11 C           1.5823   -3.5905   -6.0204 C.ar    1  LIG11      -0.0410
     12 C           2.9634   -3.4085   -5.8909 C.ar    1  LIG11       0.0248
     13 C           3.5865   -3.7105   -4.6731 C.ar    1  LIG11      -0.0364
     14 N           0.2258   -4.4780    6.6472 N.pl3   1  LIG11      -0.3580
     15 H           3.5289   -5.8706   -2.3608 H       1  LIG11       0.0514
     16 H           4.6553   -4.5040   -2.3709 H       1  LIG11       0.0514
     17 H           0.1048   -3.8812    7.4789 H       1  LIG11       0.1423
     18 C           3.9746   -2.1726    0.0291 C.3     1  LIG11      -0.0064
     19 C           5.4275   -2.3602   -0.4424 C.ar    1  LIG11      -0.0455
     20 C           6.0917   -1.3363   -1.1298 C.ar    1  LIG11      -0.0585
     21 C           7.4231   -1.4934   -1.5276 C.ar    1  LIG11      -0.0615
     22 C           8.1009   -2.6831   -1.2490 C.ar    1  LIG11      -0.0617
     23 C           7.4423   -3.7127   -0.5717 C.ar    1  LIG11      -0.0615
     24 C           6.1120   -3.5512   -0.1724 C.ar    1  LIG11      -0.0585
     25 C          -0.1629   -4.7033   -0.0250 C.3     1  LIG11      -0.0064
     26 C          -0.7903   -5.9864    0.5481 C.ar    1  LIG11      -0.0455
     27 C          -1.9400   -5.9017    1.3423 C.ar    1  LIG11      -0.0585
     28 C          -2.5491   -7.0579    1.8394 C.ar    1  LIG11      -0.0615
     29 C          -2.0063   -8.3129    1.5517 C.ar    1  LIG11      -0.0617
     30 C          -0.8545   -8.4057    0.7656 C.ar    1  LIG11      -0.0615
     31 C          -0.2456   -7.2471    0.2723 C.ar    1  LIG11      -0.0585
     32 C           2.2427   -4.6743    3.5828 C.ar    1  LIG11      -0.0283
     33 C           3.2124   -3.7066    3.8688 C.ar    1  LIG11      -0.0570
     34 C           3.1294   -2.9383    5.0333 C.ar    1  LIG11      -0.0597
     35 C           2.1038   -3.1728    5.9535 C.ar    1  LIG11      -0.0410
     36 C           1.1609   -4.1774    5.7111 C.ar    1  LIG11       0.0248
     37 C           1.1996   -4.8739    4.4970 C.ar    1  LIG11      -0.0364
     38 H           3.2219   -2.2804   -1.9442 H       1  LIG11       0.0531
     39 H           0.8418   -2.6238   -1.5078 H       1  LIG11       0.0638
     40 H           1.6618   -2.0811    1.4473 H       1  LIG11       0.0638
     41 H           0.2973   -4.0248    1.9188 H       1  LIG11       0.0531
     42 N           3.0146   -4.1857   -1.1113 N.am    1  LIG11      -0.2752
     43 N           2.0763   -4.7465    1.0733 N.am    1  LIG11      -0.2752
     44 H           3.3569   -5.9456    2.3268 H       1  LIG11       0.0514
     45 H           1.6345   -6.3607    2.3305 H       1  LIG11       0.0514
     46 H           0.9544   -5.1110   -3.0667 H       1  LIG11       0.0621
     47 H          -0.2165   -4.3147   -5.0774 H       1  LIG11       0.0618
     48 O           3.4735   -6.0453   -0.0230 O.2     1  LIG11      -0.2524
     49 O           1.5525   -0.7487   -0.9792 O.3     1  LIG11      -0.3873
     50 O          -0.3202   -1.8730    0.9063 O.3     1  LIG11      -0.3873
     51 H           1.0667   -3.2907   -6.9272 H       1  LIG11       0.0636
     52 H           4.6334   -3.4635   -4.5366 H       1  LIG11       0.0639
     53 H           3.8765   -2.6780    0.9964 H       1  LIG11       0.0332
     54 H           3.8035   -1.0981    0.2017 H       1  LIG11       0.0332
     55 H           5.5784   -0.4072   -1.3562 H       1  LIG11       0.0620
     56 H           7.9332   -0.6909   -2.0525 H       1  LIG11       0.0618
     57 H           9.1351   -2.8067   -1.5570 H       1  LIG11       0.0618
     58 H           7.9660   -4.6388   -0.3544 H       1  LIG11       0.0618
     59 H           5.6141   -4.3593    0.3533 H       1  LIG11       0.0620
     60 H           0.3755   -4.9725   -0.9338 H       1  LIG11       0.0332
     61 H          -0.9848   -4.0305   -0.3160 H       1  LIG11       0.0332
     62 H          -2.3703   -4.9326    1.5737 H       1  LIG11       0.0620
     63 H          -3.4454   -6.9820    2.4477 H       1  LIG11       0.0618
     64 H          -2.4782   -9.2120    1.9375 H       1  LIG11       0.0618
     65 H          -0.4343   -9.3809    0.5377 H       1  LIG11       0.0618
     66 H           0.6527   -7.3353   -0.3310 H       1  LIG11       0.0620
     67 H           4.0440   -3.5513    3.1918 H       1  LIG11       0.0621
     68 H           3.8643   -2.1631    5.2296 H       1  LIG11       0.0618
     69 H           2.0505   -2.5739    6.8574 H       1  LIG11       0.0636
     70 H           0.4117   -5.5817    4.2641 H       1  LIG11       0.0639
     71 H           0.6960   -0.3361   -1.0272 H       1  LIG11       0.2100
     72 H          -0.2935   -0.9246    0.9879 H       1  LIG11       0.2100
     73 H          -0.3537   -5.3253    6.5548 H       1  LIG11       0.1423
     74 N           3.6903   -2.9532   -6.9416 N.pl3   1  LIG11      -0.3580
     75 H           3.2222   -2.6043   -7.7913 H       1  LIG11       0.1423
     76 H           4.7200   -2.9853   -6.9186 H       1  LIG11       0.1423
@<TRIPOS>BOND
     1    75    74    1
     2    74    76    1
     3    74    12    1
     4    51    11    1
     5    11    12   ar
     6    11    10   ar
     7    12    13   ar
     8    47    10    1
     9    10     9   ar
    10    13    52    1
    11    13     8   ar
    12     9     8   ar
    13     9    46    1
    14     8     2    1
    15    16     2    1
    16    15     2    1
    17     2    42    1
    18    56    21    1
    19    38     3    1
    20    57    22    1
    21    21    22   ar
    22    21    20   ar
    23    39     4    1
    24    55    20    1
    25    22    23   ar
    26    20    19   ar
    27    42     3    1
    28    42     1   am
    29    71    49    1
    30     3     4    1
    31     3    18    1
    32    49     4    1
    33    60    25    1
    34     4     5    1
    35    23    58    1
    36    23    24   ar
    37    19    24   ar
    38    19    18    1
    39    66    31    1
    40    61    25    1
    41    24    59    1
    42    25    26    1
    43    25     6    1
    44    48     1    2
    45     1    43   am
    46    18    54    1
    47    18    53    1
    48    31    26   ar
    49    31    30   ar
    50    65    30    1
    51    26    27   ar
    52     5    50    1
    53     5     6    1
    54     5    40    1
    55    30    29   ar
    56    50    72    1
    57     6    43    1
    58     6    41    1
    59    43     7    1
    60    27    62    1
    61    27    28   ar
    62    29    28   ar
    63    29    64    1
    64    28    63    1
    65     7    44    1
    66     7    45    1
    67     7    32    1
    68    67    33    1
    69    32    33   ar
    70    32    37   ar
    71    33    34   ar
    72    70    37    1
    73    37    36   ar
    74    34    68    1
    75    34    35   ar
    76    36    35   ar
    77    36    14    1
    78    35    69    1
    79    73    14    1
    80    14    17    1
