@<TRIPOS>MOLECULE
Mol_75
 88 92 0 0 0
SMALL
GASTEIGER
Energy = 0

@<TRIPOS>ATOM
      1 C           2.9243   -4.9705    0.1266 C.2     1  LIG11       0.3060
      2 C           2.4951   -5.5357    2.4570 C.3     1  LIG11       0.0416
      3 C           0.8952   -4.0356    1.1771 C.3     1  LIG11       0.0601
      4 C           1.0033   -2.5108    0.9350 C.3     1  LIG11       0.1016
      5 C           1.4417   -2.1774   -0.5175 C.3     1  LIG11       0.1016
      6 C           2.8535   -2.7159   -0.8589 C.3     1  LIG11       0.0601
      7 C           3.5550   -4.7508   -2.2111 C.3     1  LIG11       0.0416
      8 C           2.6085   -4.6389    3.7033 C.ar    1  LIG11      -0.0293
      9 C           1.7153   -4.7773    4.7707 C.ar    1  LIG11      -0.0449
     10 C           1.8552   -3.9945    5.9232 C.ar    1  LIG11       0.0370
     11 C           2.8114   -2.9762    5.9640 C.ar    1  LIG11      -0.0496
     12 C           3.7017   -2.8220    4.8997 C.ar    1  LIG11      -0.0607
     13 C           3.6256   -3.6815    3.7993 C.ar    1  LIG11      -0.0570
     14 C           0.9982   -4.2497    7.1418 C.2     1  LIG11       0.2448
     15 C           5.4963   -3.0159   -8.4527 C.3     1  LIG11       0.0993
     16 C           6.6643   -3.8486   -8.7240 C.1     1  LIG11       0.0815
     17 N           7.5873   -4.5158   -8.9307 N.1     1  LIG11      -0.1949
     18 C          -0.1109   -4.7239    0.2102 C.3     1  LIG11      -0.0064
     19 C          -0.6716   -6.0557    0.7305 C.ar    1  LIG11      -0.0455
     20 C          -0.1539   -7.2827    0.2967 C.ar    1  LIG11      -0.0585
     21 C          -0.6980   -8.4829    0.7648 C.ar    1  LIG11      -0.0615
     22 C          -1.7575   -8.4640    1.6761 C.ar    1  LIG11      -0.0617
     23 C          -2.2787   -7.2424    2.1105 C.ar    1  LIG11      -0.0615
     24 C          -1.7362   -6.0440    1.6384 C.ar    1  LIG11      -0.0585
     25 C           3.9721   -2.1284    0.0512 C.3     1  LIG11      -0.0064
     26 C           5.3883   -2.4085   -0.4822 C.ar    1  LIG11      -0.0455
     27 C           5.9955   -1.5112   -1.3691 C.ar    1  LIG11      -0.0585
     28 C           7.2874   -1.7484   -1.8489 C.ar    1  LIG11      -0.0615
     29 C           7.9842   -2.8914   -1.4483 C.ar    1  LIG11      -0.0617
     30 C           7.3870   -3.7904   -0.5609 C.ar    1  LIG11      -0.0615
     31 C           6.0958   -3.5490   -0.0810 C.ar    1  LIG11      -0.0585
     32 C           2.8012   -4.3706   -3.5011 C.ar    1  LIG11      -0.0293
     33 C           3.4756   -3.7875   -4.5790 C.ar    1  LIG11      -0.0449
     34 C           2.8062   -3.5097   -5.7780 C.ar    1  LIG11       0.0370
     35 C           1.4229   -3.6918   -5.8628 C.ar    1  LIG11      -0.0496
     36 C           0.7314   -4.2439   -4.7841 C.ar    1  LIG11      -0.0607
     37 C           1.4315   -4.6244   -3.6365 C.ar    1  LIG11      -0.0570
     38 C           3.5568   -3.0254   -6.9981 C.2     1  LIG11       0.2448
     39 C          -0.0303   -5.7533    8.7401 C.3     1  LIG11       0.0993
     40 C           0.0128   -7.1649    9.1106 C.1     1  LIG11       0.0815
     41 N           0.0553   -8.2855    9.3972 N.1     1  LIG11      -0.1949
     42 N           2.1676   -4.7661    1.2450 N.am    1  LIG11      -0.2752
     43 N           2.9923   -4.1716   -0.9783 N.am    1  LIG11      -0.2752
     44 N           0.7302   -5.5158    7.5181 N.am    1  LIG11      -0.2985
     45 H           3.4603   -6.0642    2.4146 H       1  LIG11       0.0514
     46 N           4.7982   -3.4823   -7.2594 N.am    1  LIG11      -0.2985
     47 H           1.7178   -6.3046    2.5902 H       1  LIG11       0.0514
     48 O           3.6163   -5.9749    0.1091 O.2     1  LIG11      -0.2524
     49 O          -0.2913   -1.9439    1.2254 O.3     1  LIG11      -0.3873
     50 O           1.4598   -0.7521   -0.7417 O.3     1  LIG11      -0.3873
     51 O           0.5826   -3.2993    7.7843 O.2     1  LIG11      -0.2702
     52 O           3.0104   -2.2328   -7.7476 O.2     1  LIG11      -0.2702
     53 H           0.4065   -4.1045    2.1646 H       1  LIG11       0.0531
     54 H           1.7181   -2.1095    1.6722 H       1  LIG11       0.0638
     55 H           0.7436   -2.6222   -1.2462 H       1  LIG11       0.0638
     56 H           3.0619   -2.2744   -1.8494 H       1  LIG11       0.0531
     57 H           3.5409   -5.8519   -2.2206 H       1  LIG11       0.0514
     58 H           4.6095   -4.4415   -2.2734 H       1  LIG11       0.0514
     59 H           0.9082   -5.4988    4.7093 H       1  LIG11       0.0628
     60 H           2.8713   -2.3186    6.8266 H       1  LIG11       0.0625
     61 H           4.4564   -2.0415    4.9349 H       1  LIG11       0.0618
     62 H           4.3745   -3.6073    3.0223 H       1  LIG11       0.0621
     63 H           5.8275   -1.9755   -8.3147 H       1  LIG11       0.0620
     64 H           4.8421   -3.0698   -9.3374 H       1  LIG11       0.0620
     65 H           0.3978   -4.9208   -0.7312 H       1  LIG11       0.0332
     66 H          -0.9695   -4.0687   -0.0073 H       1  LIG11       0.0332
     67 H           0.6701   -7.3132   -0.4097 H       1  LIG11       0.0620
     68 H          -0.2987   -9.4322    0.4199 H       1  LIG11       0.0618
     69 H          -2.1756   -9.3956    2.0456 H       1  LIG11       0.0618
     70 H          -3.1060   -7.2240    2.8135 H       1  LIG11       0.0618
     71 H          -2.1508   -5.0998    1.9773 H       1  LIG11       0.0620
     72 H           3.9009   -2.5649    1.0498 H       1  LIG11       0.0332
     73 H           3.8489   -1.0395    0.1641 H       1  LIG11       0.0332
     74 H           5.4663   -0.6193   -1.6884 H       1  LIG11       0.0620
     75 H           7.7519   -1.0439   -2.5324 H       1  LIG11       0.0618
     76 H           8.9858   -3.0796   -1.8243 H       1  LIG11       0.0618
     77 H           7.9284   -4.6769   -0.2438 H       1  LIG11       0.0618
     78 H           5.6488   -4.2572    0.6085 H       1  LIG11       0.0620
     79 H           4.5293   -3.5506   -4.4858 H       1  LIG11       0.0628
     80 H           0.8880   -3.4181   -6.7674 H       1  LIG11       0.0625
     81 H          -0.3441   -4.3862   -4.8426 H       1  LIG11       0.0618
     82 H           0.8949   -5.1365   -2.8568 H       1  LIG11       0.0621
     83 H          -1.0798   -5.4514    8.6044 H       1  LIG11       0.0620
     84 H           0.4017   -5.1834    9.5780 H       1  LIG11       0.0620
     85 H           1.0816   -6.2965    6.9982 H       1  LIG11       0.1500
     86 H           5.2444   -4.1529   -6.6647 H       1  LIG11       0.1500
     87 H          -0.2914   -0.9932    1.2755 H       1  LIG11       0.2100
     88 H           0.5946   -0.3550   -0.7728 H       1  LIG11       0.2100
@<TRIPOS>BOND
     1    64    15    1
     2    17    16    3
     3    16    15    1
     4    15    63    1
     5    15    46    1
     6    52    38    2
     7    46    38   am
     8    46    86    1
     9    38    34    1
    10    80    35    1
    11    35    34   ar
    12    35    36   ar
    13    34    33   ar
    14    81    36    1
    15    36    37   ar
    16    33    79    1
    17    33    32   ar
    18    37    32   ar
    19    37    82    1
    20    32     7    1
    21    75    28    1
    22    58     7    1
    23    57     7    1
    24     7    43    1
    25    56     6    1
    26    28    29   ar
    27    28    27   ar
    28    76    29    1
    29    74    27    1
    30    29    30   ar
    31    27    26   ar
    32    55     5    1
    33    43     6    1
    34    43     1   am
    35     6     5    1
    36     6    25    1
    37    88    50    1
    38    50     5    1
    39    65    18    1
    40    30    77    1
    41    30    31   ar
    42     5     4    1
    43    26    31   ar
    44    26    25    1
    45    67    20    1
    46    31    78    1
    47    66    18    1
    48    25    73    1
    49    25    72    1
    50    48     1    2
    51     1    42   am
    52    18    19    1
    53    18     3    1
    54    20    19   ar
    55    20    21   ar
    56    68    21    1
    57    19    24   ar
    58    21    22   ar
    59     4     3    1
    60     4    49    1
    61     4    54    1
    62     3    42    1
    63     3    53    1
    64    49    87    1
    65    42     2    1
    66    24    71    1
    67    24    23   ar
    68    22    69    1
    69    22    23   ar
    70    23    70    1
    71    45     2    1
    72     2    47    1
    73     2     8    1
    74    62    13    1
    75     8    13   ar
    76     8     9   ar
    77    13    12   ar
    78    59     9    1
    79     9    10   ar
    80    12    61    1
    81    12    11   ar
    82    10    11   ar
    83    10    14    1
    84    11    60    1
    85    85    44    1
    86    14    44   am
    87    14    51    2
    88    44    39    1
    89    83    39    1
    90    39    40    1
    91    39    84    1
    92    40    41    3
