@<TRIPOS>MOLECULE
Mol_76
 98 104 0 0 0
SMALL
GASTEIGER
Energy = 0

@<TRIPOS>ATOM
      1 C           2.9508   -4.8889    0.1004 C.2     1  LIG11       0.3060
      2 C           2.3360   -5.4944    2.3836 C.3     1  LIG11       0.0416
      3 C           0.9341   -3.8382    1.0733 C.3     1  LIG11       0.0601
      4 C           1.1700   -2.3261    0.8545 C.3     1  LIG11       0.1016
      5 C           1.6535   -2.0159   -0.5892 C.3     1  LIG11       0.1016
      6 C           3.0482   -2.6218   -0.8887 C.3     1  LIG11       0.0601
      7 C           3.7351   -4.6895   -2.1974 C.3     1  LIG11       0.0416
      8 C           2.4268   -4.6654    3.6794 C.ar    1  LIG11      -0.0293
      9 C           1.5565   -4.8947    4.7507 C.ar    1  LIG11      -0.0449
     10 C           1.7031   -4.1920    5.9547 C.ar    1  LIG11       0.0373
     11 C           2.6124   -3.1332    6.0329 C.ar    1  LIG11      -0.0496
     12 C           3.4679   -2.8753    4.9608 C.ar    1  LIG11      -0.0607
     13 C           3.4070   -3.6763    3.8170 C.ar    1  LIG11      -0.0570
     14 C           0.9165   -4.5690    7.1919 C.2     1  LIG11       0.2483
     15 C           5.7508   -3.2051   -8.3650 C.ar    1  LIG11       0.0365
     16 C           6.9555   -2.5113   -8.2401 C.ar    1  LIG11      -0.0223
     17 C           7.7641   -2.3399   -9.3660 C.ar    1  LIG11       0.0293
     18 C          -0.0954   -4.4226    0.0631 C.3     1  LIG11      -0.0064
     19 C          -0.7823   -5.7204    0.5139 C.ar    1  LIG11      -0.0455
     20 C          -0.3753   -6.9666    0.0213 C.ar    1  LIG11      -0.0585
     21 C          -1.0690   -8.1272    0.3782 C.ar    1  LIG11      -0.0615
     22 C          -2.1568   -8.0530    1.2526 C.ar    1  LIG11      -0.0617
     23 C          -2.5467   -6.8159    1.7724 C.ar    1  LIG11      -0.0615
     24 C          -1.8565   -5.6561    1.4085 C.ar    1  LIG11      -0.0585
     25 C           4.1522   -2.0529    0.0505 C.3     1  LIG11      -0.0064
     26 C           5.5836   -2.2788   -0.4621 C.ar    1  LIG11      -0.0455
     27 C           6.3070   -3.4175   -0.0862 C.ar    1  LIG11      -0.0585
     28 C           7.6177   -3.6043   -0.5362 C.ar    1  LIG11      -0.0615
     29 C           8.2141   -2.6553   -1.3709 C.ar    1  LIG11      -0.0617
     30 C           7.4983   -1.5162   -1.7486 C.ar    1  LIG11      -0.0615
     31 C           6.1882   -1.3313   -1.2968 C.ar    1  LIG11      -0.0585
     32 C           2.9848   -4.3450   -3.4989 C.ar    1  LIG11      -0.0293
     33 C           3.6317   -3.7079   -4.5636 C.ar    1  LIG11      -0.0449
     34 C           2.9740   -3.5000   -5.7844 C.ar    1  LIG11       0.0373
     35 C           1.5986   -3.7367   -5.8726 C.ar    1  LIG11      -0.0496
     36 C           0.9292   -4.3337   -4.8024 C.ar    1  LIG11      -0.0607
     37 C           1.6384   -4.6925   -3.6528 C.ar    1  LIG11      -0.0570
     38 C           3.7350   -3.0535   -7.0154 C.2     1  LIG11       0.2483
     39 N           7.3635   -2.8100  -10.5654 N.ar    1  LIG11      -0.2631
     40 C           6.1801   -3.4399  -10.7214 C.ar    1  LIG11       0.0293
     41 C           5.3324   -3.6361   -9.6269 C.ar    1  LIG11      -0.0223
     42 N           2.1432   -4.6632    1.1809 N.am    1  LIG11      -0.2752
     43 N           3.1352   -4.0859   -0.9917 N.am    1  LIG11      -0.2752
     44 N           0.7209   -5.8826    7.4620 N.am    1  LIG11      -0.2814
     45 C           0.0928   -6.4337    8.6207 C.ar    1  LIG11       0.0365
     46 N           4.9926   -3.5058   -7.2063 N.am    1  LIG11      -0.2814
     47 C           0.1173   -7.8227    8.7933 C.ar    1  LIG11      -0.0223
     48 O           3.5813   -5.9330    0.1089 O.2     1  LIG11      -0.2524
     49 O          -0.0782   -1.6629    1.1473 O.3     1  LIG11      -0.3873
     50 O           1.7341   -0.5919   -0.7993 O.3     1  LIG11      -0.3873
     51 O           0.5344   -3.6437    7.8866 O.2     1  LIG11      -0.2699
     52 O           3.1848   -2.3118   -7.8134 O.2     1  LIG11      -0.2699
     53 C          -0.4455   -8.4099    9.9279 C.ar    1  LIG11       0.0293
     54 N          -1.0271   -7.6387   10.8660 N.ar    1  LIG11      -0.2631
     55 C          -1.0877   -6.2991   10.7292 C.ar    1  LIG11       0.0293
     56 C          -0.5460   -5.6653    9.6067 C.ar    1  LIG11      -0.0223
     57 H           3.2658   -6.0844    2.3866 H       1  LIG11       0.0514
     58 H           1.5018   -6.2120    2.4307 H       1  LIG11       0.0514
     59 H           0.4114   -3.8757    2.0450 H       1  LIG11       0.0531
     60 H           1.9063   -1.9964    1.6053 H       1  LIG11       0.0638
     61 H           0.9563   -2.4130   -1.3455 H       1  LIG11       0.0638
     62 H           3.3022   -2.1987   -1.8767 H       1  LIG11       0.0531
     63 H           3.7401   -5.7911   -2.1913 H       1  LIG11       0.0514
     64 H           4.7864   -4.3685   -2.2543 H       1  LIG11       0.0514
     65 H           0.7642   -5.6281    4.6484 H       1  LIG11       0.0628
     66 H           2.6663   -2.5227    6.9299 H       1  LIG11       0.0625
     67 H           4.1845   -2.0614    5.0235 H       1  LIG11       0.0618
     68 H           4.1399   -3.5330    3.0376 H       1  LIG11       0.0621
     69 H           7.2578   -2.1175   -7.2758 H       1  LIG11       0.0651
     70 H           8.7186   -1.8314   -9.2811 H       1  LIG11       0.0830
     71 H           0.4138   -4.6191   -0.8799 H       1  LIG11       0.0332
     72 H          -0.8977   -3.6958   -0.1412 H       1  LIG11       0.0332
     73 H           0.4769   -7.0416   -0.6472 H       1  LIG11       0.0620
     74 H          -0.7651   -9.0886   -0.0254 H       1  LIG11       0.0618
     75 H          -2.6980   -8.9535    1.5275 H       1  LIG11       0.0618
     76 H          -3.3879   -6.7553    2.4564 H       1  LIG11       0.0618
     77 H          -2.1655   -4.7000    1.8191 H       1  LIG11       0.0620
     78 H           4.0794   -2.5311    1.0281 H       1  LIG11       0.0332
     79 H           4.0124   -0.9715    0.2067 H       1  LIG11       0.0332
     80 H           5.8562   -4.1636    0.5609 H       1  LIG11       0.0620
     81 H           8.1747   -4.4870   -0.2364 H       1  LIG11       0.0618
     82 H           9.2305   -2.8020   -1.7244 H       1  LIG11       0.0618
     83 H           7.9617   -0.7739   -2.3918 H       1  LIG11       0.0618
     84 H           5.6437   -0.4411   -1.5951 H       1  LIG11       0.0620
     85 H           4.6572   -3.3786   -4.4407 H       1  LIG11       0.0628
     86 H           1.0542   -3.4750   -6.7751 H       1  LIG11       0.0625
     87 H          -0.1372   -4.5302   -4.8690 H       1  LIG11       0.0618
     88 H           1.1361   -5.2600   -2.8845 H       1  LIG11       0.0621
     89 H           5.8973   -3.7974  -11.7060 H       1  LIG11       0.0830
     90 H           4.3742   -4.1294   -9.7512 H       1  LIG11       0.0651
     91 H           1.1218   -6.5251    6.8125 H       1  LIG11       0.1551
     92 H           5.4160   -4.1093   -6.5363 H       1  LIG11       0.1551
     93 H           0.5781   -8.4610    8.0464 H       1  LIG11       0.0651
     94 H           0.0013   -0.7224    1.2737 H       1  LIG11       0.2100
     95 H           0.8859   -0.1585   -0.7879 H       1  LIG11       0.2100
     96 H          -0.4158   -9.4863   10.0590 H       1  LIG11       0.0830
     97 H          -1.5670   -5.7148   11.5080 H       1  LIG11       0.0830
     98 H          -0.6489   -4.5924    9.5486 H       1  LIG11       0.0651
@<TRIPOS>BOND
     1    89    40    1
     2    40    39   ar
     3    40    41   ar
     4    39    17   ar
     5    90    41    1
     6    41    15   ar
     7    17    70    1
     8    17    16   ar
     9    15    16   ar
    10    15    46    1
    11    16    69    1
    12    52    38    2
    13    46    38   am
    14    46    92    1
    15    38    34    1
    16    86    35    1
    17    35    34   ar
    18    35    36   ar
    19    34    33   ar
    20    87    36    1
    21    36    37   ar
    22    33    85    1
    23    33    32   ar
    24    37    32   ar
    25    37    88    1
    26    32     7    1
    27    83    30    1
    28    64     7    1
    29     7    63    1
    30     7    43    1
    31    62     6    1
    32    30    29   ar
    33    30    31   ar
    34    82    29    1
    35    84    31    1
    36    29    28   ar
    37    61     5    1
    38    31    26   ar
    39    43     6    1
    40    43     1   am
    41     6     5    1
    42     6    25    1
    43    71    18    1
    44    50    95    1
    45    50     5    1
    46    73    20    1
    47     5     4    1
    48    28    81    1
    49    28    27   ar
    50    26    27   ar
    51    26    25    1
    52    72    18    1
    53    27    80    1
    54    74    21    1
    55    20    21   ar
    56    20    19   ar
    57    25    79    1
    58    25    78    1
    59    18    19    1
    60    18     3    1
    61     1    48    2
    62     1    42   am
    63    21    22   ar
    64    19    24   ar
    65     4     3    1
    66     4    49    1
    67     4    60    1
    68     3    42    1
    69     3    59    1
    70    49    94    1
    71    42     2    1
    72    22    75    1
    73    22    23   ar
    74    24    23   ar
    75    24    77    1
    76    23    76    1
    77     2    57    1
    78     2    58    1
    79     2     8    1
    80    68    13    1
    81     8    13   ar
    82     8     9   ar
    83    13    12   ar
    84    65     9    1
    85     9    10   ar
    86    12    67    1
    87    12    11   ar
    88    10    11   ar
    89    10    14    1
    90    11    66    1
    91    91    44    1
    92    14    44   am
    93    14    51    2
    94    44    45    1
    95    93    47    1
    96    45    47   ar
    97    45    56   ar
    98    47    53   ar
    99    98    56    1
   100    56    55   ar
   101    53    96    1
   102    53    54   ar
   103    55    54   ar
   104    55    97    1
