@<TRIPOS>MOLECULE
Mol_69
 86 90 0 0 0
SMALL
GASTEIGER
Energy = 0

@<TRIPOS>ATOM
      1 C           3.0136   -5.0409    0.0415 C.2     1  LIG11       0.3060
      2 C           3.7406   -4.8021   -2.2755 C.3     1  LIG11       0.0416
      3 C           3.0623   -2.7692   -0.9152 C.3     1  LIG11       0.0601
      4 C           1.6278   -2.2305   -0.6973 C.3     1  LIG11       0.1016
      5 C           1.1002   -2.5284    0.7320 C.3     1  LIG11       0.1016
      6 C           0.9801   -4.0449    1.0186 C.3     1  LIG11       0.0601
      7 C           2.4900   -5.5878    2.3561 C.3     1  LIG11       0.0416
      8 C           2.9100   -4.4297   -3.5187 C.ar    1  LIG11      -0.0293
      9 C           3.4784   -3.7282   -4.5864 C.ar    1  LIG11      -0.0449
     10 C           2.7135   -3.4102   -5.7159 C.ar    1  LIG11       0.0370
     11 C           1.3401   -3.6688   -5.7314 C.ar    1  LIG11      -0.0496
     12 C           0.7604   -4.3641   -4.6701 C.ar    1  LIG11      -0.0607
     13 C           1.5654   -4.8052   -3.6170 C.ar    1  LIG11      -0.0570
     14 C           3.3579   -2.8071   -6.9420 C.2     1  LIG11       0.2438
     15 C          -0.2765   -5.7951    8.5669 C.3     1  LIG11       0.0004
     16 C           5.1619   -2.7348   -8.5707 C.3     1  LIG11       0.0004
     17 H           3.7786   -5.9025   -2.2858 H       1  LIG11       0.0514
     18 C           4.0924   -2.1932    0.1002 C.3     1  LIG11      -0.0064
     19 C           5.5532   -2.3734   -0.3469 C.ar    1  LIG11      -0.0455
     20 C           6.2329   -3.5720   -0.0985 C.ar    1  LIG11      -0.0585
     21 C           7.5668   -3.7257   -0.4894 C.ar    1  LIG11      -0.0615
     22 C           8.2335   -2.6803   -1.1339 C.ar    1  LIG11      -0.0617
     23 C           7.5630   -1.4798   -1.3820 C.ar    1  LIG11      -0.0615
     24 C           6.2286   -1.3302   -0.9925 C.ar    1  LIG11      -0.0585
     25 C           0.0022   -4.7733    0.0510 C.3     1  LIG11      -0.0064
     26 C          -0.6730   -6.0129    0.6597 C.ar    1  LIG11      -0.0455
     27 C          -1.8354   -5.8530    1.4222 C.ar    1  LIG11      -0.0585
     28 C          -2.4791   -6.9626    1.9771 C.ar    1  LIG11      -0.0615
     29 C          -1.9639   -8.2449    1.7703 C.ar    1  LIG11      -0.0617
     30 C          -0.8086   -8.4134    1.0019 C.ar    1  LIG11      -0.0615
     31 C          -0.1631   -7.3011    0.4521 C.ar    1  LIG11      -0.0585
     32 C           2.5978   -4.7244    3.6265 C.ar    1  LIG11      -0.0293
     33 C           1.6479   -4.8288    4.6487 C.ar    1  LIG11      -0.0449
     34 C           1.7911   -4.0935    5.8315 C.ar    1  LIG11       0.0370
     35 C           2.8213   -3.1570    5.9515 C.ar    1  LIG11      -0.0496
     36 C           3.7636   -3.0302    4.9294 C.ar    1  LIG11      -0.0607
     37 C           3.6698   -3.8382    3.7919 C.ar    1  LIG11      -0.0570
     38 C           0.8602   -4.3094    7.0026 C.2     1  LIG11       0.2438
     39 H           4.7775   -4.4446   -2.3748 H       1  LIG11       0.0514
     40 H           3.3638   -2.3191   -1.8780 H       1  LIG11       0.0531
     41 H           0.9833   -2.6987   -1.4609 H       1  LIG11       0.0638
     42 N           3.1754   -4.2264   -1.0425 N.am    1  LIG11      -0.2752
     43 N           2.2351   -4.8000    1.1386 N.am    1  LIG11      -0.2752
     44 N           4.5661   -3.2541   -7.3458 N.am    1  LIG11      -0.3144
     45 H           1.7738   -2.1062    1.4956 H       1  LIG11       0.0638
     46 N           0.5492   -5.5671    7.3846 N.am    1  LIG11      -0.3144
     47 H           0.4646   -4.0699    1.9943 H       1  LIG11       0.0531
     48 O           3.6241   -6.0967    0.0263 O.2     1  LIG11      -0.2524
     49 O           1.6664   -0.8090   -0.9421 O.3     1  LIG11      -0.3873
     50 O          -0.2069   -1.9519    0.9381 O.3     1  LIG11      -0.3873
     51 O           2.7501   -1.9436   -7.5544 O.2     1  LIG11      -0.2702
     52 O           0.4351   -3.3288    7.5921 O.2     1  LIG11      -0.2702
     53 H           3.4362   -6.1506    2.3352 H       1  LIG11       0.0514
     54 H           1.6825   -6.3293    2.4556 H       1  LIG11       0.0514
     55 H           4.5203   -3.4312   -4.5437 H       1  LIG11       0.0628
     56 H           0.7304   -3.3480   -6.5710 H       1  LIG11       0.0625
     57 H          -0.3061   -4.5713   -4.6709 H       1  LIG11       0.0618
     58 H           1.1338   -5.4623   -2.8821 H       1  LIG11       0.0621
     59 H          -0.0898   -6.7996    8.9795 H       1  LIG11       0.0426
     60 H          -1.3412   -5.7131    8.3019 H       1  LIG11       0.0426
     61 H          -0.0487   -5.0622    9.3576 H       1  LIG11       0.0426
     62 H           4.4197   -2.7336   -9.3848 H       1  LIG11       0.0426
     63 H           6.0128   -3.3597   -8.8862 H       1  LIG11       0.0426
     64 H           5.5175   -1.7062   -8.4084 H       1  LIG11       0.0426
     65 H           3.9810   -2.6916    1.0670 H       1  LIG11       0.0332
     66 H           3.9057   -1.1198    0.2629 H       1  LIG11       0.0332
     67 H           5.7298   -4.3917    0.4033 H       1  LIG11       0.0620
     68 H           8.0875   -4.6578   -0.2913 H       1  LIG11       0.0618
     69 H           9.2686   -2.7994   -1.4403 H       1  LIG11       0.0618
     70 H           8.0802   -0.6628   -1.8766 H       1  LIG11       0.0618
     71 H           5.7219   -0.3916   -1.1929 H       1  LIG11       0.0620
     72 H           0.5712   -5.1022   -0.8143 H       1  LIG11       0.0332
     73 H          -0.7915   -4.1034   -0.3150 H       1  LIG11       0.0332
     74 H          -2.2466   -4.8615    1.5829 H       1  LIG11       0.0620
     75 H          -3.3802   -6.8280    2.5676 H       1  LIG11       0.0618
     76 H          -2.4607   -9.1071    2.2052 H       1  LIG11       0.0618
     77 H          -0.4141   -9.4111    0.8322 H       1  LIG11       0.0618
     78 H           0.7354   -7.4477   -0.1398 H       1  LIG11       0.0620
     79 H           0.7937   -5.4869    4.5328 H       1  LIG11       0.0628
     80 H           2.8959   -2.5423    6.8441 H       1  LIG11       0.0625
     81 H           4.5718   -2.3108    5.0265 H       1  LIG11       0.0618
     82 H           4.4480   -3.7807    3.0416 H       1  LIG11       0.0621
     83 H           5.0494   -3.9687   -6.8379 H       1  LIG11       0.1487
     84 H           0.9001   -6.3575    6.8795 H       1  LIG11       0.1487
     85 H           0.8061   -0.4049   -0.9941 H       1  LIG11       0.2100
     86 H          -0.2038   -1.0022    1.0097 H       1  LIG11       0.2100
@<TRIPOS>BOND
     1    62    16    1
     2    63    16    1
     3    16    64    1
     4    16    44    1
     5    51    14    2
     6    44    14   am
     7    44    83    1
     8    14    10    1
     9    56    11    1
    10    11    10   ar
    11    11    12   ar
    12    10     9   ar
    13    57    12    1
    14    12    13   ar
    15     9    55    1
    16     9     8   ar
    17    13     8   ar
    18    13    58    1
    19     8     2    1
    20    39     2    1
    21    17     2    1
    22     2    42    1
    23    40     3    1
    24    70    23    1
    25    41     4    1
    26    69    22    1
    27    23    22   ar
    28    23    24   ar
    29    71    24    1
    30    22    21   ar
    31    42     3    1
    32    42     1   am
    33    85    49    1
    34    24    19   ar
    35    49     4    1
    36     3     4    1
    37     3    18    1
    38    72    25    1
    39     4     5    1
    40    21    68    1
    41    21    20   ar
    42    19    20   ar
    43    19    18    1
    44    73    25    1
    45    78    31    1
    46    20    67    1
    47    48     1    2
    48     1    43   am
    49    25    26    1
    50    25     6    1
    51    18    66    1
    52    18    65    1
    53    31    26   ar
    54    31    30   ar
    55    26    27   ar
    56     5    50    1
    57     5     6    1
    58     5    45    1
    59    77    30    1
    60    50    86    1
    61    30    29   ar
    62     6    43    1
    63     6    47    1
    64    43     7    1
    65    27    74    1
    66    27    28   ar
    67    29    28   ar
    68    29    76    1
    69    28    75    1
    70    53     7    1
    71     7    54    1
    72     7    32    1
    73    82    37    1
    74    32    37   ar
    75    32    33   ar
    76    37    36   ar
    77    79    33    1
    78    33    34   ar
    79    36    81    1
    80    36    35   ar
    81    34    35   ar
    82    34    38    1
    83    35    80    1
    84    84    46    1
    85    38    46   am
    86    38    52    2
    87    46    15    1
    88    60    15    1
    89    15    59    1
    90    15    61    1
