@<TRIPOS>MOLECULE
Mol_30
 72 76 0 0 0
SMALL
GASTEIGER
Energy = 0

@<TRIPOS>ATOM
      1 C           2.5568   -5.2377    0.4327 C.2     1  LIG11       0.3060
      2 C           3.3823   -5.2729   -1.8445 C.3     1  LIG11       0.0416
      3 C           2.8016   -3.0605   -0.7070 C.3     1  LIG11       0.0601
      4 C           1.3995   -2.4116   -0.6109 C.3     1  LIG11       0.1016
      5 C           0.7896   -2.5757    0.8060 C.3     1  LIG11       0.1016
      6 C           0.5269   -4.0560    1.1681 C.3     1  LIG11       0.0601
      7 C           1.8467   -5.5295    2.7565 C.3     1  LIG11       0.0416
      8 C           2.9654   -4.6835   -3.2019 C.ar    1  LIG11      -0.0300
      9 C           1.6205   -4.6906   -3.5879 C.ar    1  LIG11      -0.0557
     10 C           1.2323   -4.1853   -4.8318 C.ar    1  LIG11      -0.0431
     11 C           2.1974   -3.7051   -5.7196 C.ar    1  LIG11       0.0410
     12 C           3.5401   -3.6762   -5.3345 C.ar    1  LIG11      -0.0431
     13 C           3.9181   -4.1352   -4.0694 C.ar    1  LIG11      -0.0557
     14 CL          3.5242   -1.7621    7.2562 Cl      1  LIG11      -0.0835
     15 CL          1.7257   -3.1438   -7.3103 Cl      1  LIG11      -0.0835
     16 H           3.0443   -6.3222   -1.8676 H       1  LIG11       0.0514
     17 H           4.4774   -5.2892   -1.7578 H       1  LIG11       0.0514
     18 C           3.8313   -2.4509    0.2944 C.3     1  LIG11      -0.0064
     19 C           5.2524   -2.3375   -0.2908 C.ar    1  LIG11      -0.0455
     20 C           5.7243   -1.1119   -0.7783 C.ar    1  LIG11      -0.0585
     21 C           7.0181   -0.9996   -1.2979 C.ar    1  LIG11      -0.0615
     22 C           7.8478   -2.1212   -1.3523 C.ar    1  LIG11      -0.0617
     23 C           7.3812   -3.3509   -0.8776 C.ar    1  LIG11      -0.0615
     24 C           6.0974   -3.4529   -0.3334 C.ar    1  LIG11      -0.0585
     25 C          -0.4354   -4.7813    0.1829 C.3     1  LIG11      -0.0064
     26 C          -0.9941   -6.0969    0.7507 C.ar    1  LIG11      -0.0455
     27 C          -0.3342   -7.3093    0.5156 C.ar    1  LIG11      -0.0585
     28 C          -0.8653   -8.5111    0.9938 C.ar    1  LIG11      -0.0615
     29 C          -2.0564   -8.5088    1.7243 C.ar    1  LIG11      -0.0617
     30 C          -2.7131   -7.3011    1.9753 C.ar    1  LIG11      -0.0615
     31 C          -2.1810   -6.1009    1.4935 C.ar    1  LIG11      -0.0585
     32 C           2.2431   -4.5227    3.8523 C.ar    1  LIG11      -0.0300
     33 C           3.5657   -4.0717    3.9443 C.ar    1  LIG11      -0.0557
     34 C           3.9554   -3.2064    4.9722 C.ar    1  LIG11      -0.0431
     35 C           3.0278   -2.8002    5.9342 C.ar    1  LIG11       0.0410
     36 C           1.7013   -3.2274    5.8378 C.ar    1  LIG11      -0.0431
     37 C           1.3063   -4.0602    4.7858 C.ar    1  LIG11      -0.0557
     38 H           3.1598   -2.7018   -1.6864 H       1  LIG11       0.0531
     39 H           0.7565   -2.8776   -1.3761 H       1  LIG11       0.0638
     40 H           1.4747   -2.1834    1.5762 H       1  LIG11       0.0638
     41 H          -0.0584   -3.9753    2.1008 H       1  LIG11       0.0531
     42 N           2.8149   -4.5316   -0.7067 N.am    1  LIG11      -0.2752
     43 N           1.7129   -4.8742    1.4430 N.am    1  LIG11      -0.2752
     44 H           2.6019   -6.3291    2.7939 H       1  LIG11       0.0514
     45 H           0.8912   -6.0115    3.0173 H       1  LIG11       0.0514
     46 H           0.8662   -5.0936   -2.9259 H       1  LIG11       0.0621
     47 H           0.1836   -4.1685   -5.1115 H       1  LIG11       0.0632
     48 O           3.1386   -6.3040    0.5446 O.2     1  LIG11      -0.2524
     49 O           1.5448   -1.0186   -0.9570 O.3     1  LIG11      -0.3873
     50 O          -0.4677   -1.8766    0.9209 O.3     1  LIG11      -0.3873
     51 H           4.2894   -3.2969   -6.0214 H       1  LIG11       0.0632
     52 H           4.9584   -4.0621   -3.7681 H       1  LIG11       0.0621
     53 H           3.8674   -3.0483    1.2145 H       1  LIG11       0.0332
     54 H           3.5247   -1.4341    0.5823 H       1  LIG11       0.0332
     55 H           5.0915   -0.2302   -0.7559 H       1  LIG11       0.0620
     56 H           7.3783   -0.0403   -1.6586 H       1  LIG11       0.0618
     57 H           8.8511   -2.0371   -1.7600 H       1  LIG11       0.0618
     58 H           8.0213   -4.2264   -0.9304 H       1  LIG11       0.0618
     59 H           5.7591   -4.4040    0.0632 H       1  LIG11       0.0620
     60 H           0.0940   -5.0295   -0.7420 H       1  LIG11       0.0332
     61 H          -1.2809   -4.1269   -0.0834 H       1  LIG11       0.0332
     62 H           0.5950   -7.3272   -0.0449 H       1  LIG11       0.0620
     63 H          -0.3529   -9.4480    0.7965 H       1  LIG11       0.0618
     64 H          -2.4701   -9.4421    2.0951 H       1  LIG11       0.0618
     65 H          -3.6384   -7.2971    2.5439 H       1  LIG11       0.0618
     66 H          -2.7002   -5.1698    1.6969 H       1  LIG11       0.0620
     67 H           4.3026   -4.4004    3.2189 H       1  LIG11       0.0621
     68 H           4.9795   -2.8508    5.0299 H       1  LIG11       0.0632
     69 H           0.9800   -2.9117    6.5850 H       1  LIG11       0.0632
     70 H           0.2638   -4.3497    4.7066 H       1  LIG11       0.0621
     71 H           0.7158   -0.5669   -1.0793 H       1  LIG11       0.2100
     72 H          -0.3800   -0.9287    0.9459 H       1  LIG11       0.2100
@<TRIPOS>BOND
     1    15    11    1
     2    51    12    1
     3    11    12   ar
     4    11    10   ar
     5    12    13   ar
     6    47    10    1
     7    10     9   ar
     8    13    52    1
     9    13     8   ar
    10     9     8   ar
    11     9    46    1
    12     8     2    1
    13    16     2    1
    14     2    17    1
    15     2    42    1
    16    57    22    1
    17    38     3    1
    18    56    21    1
    19    39     4    1
    20    22    21   ar
    21    22    23   ar
    22    21    20   ar
    23    71    49    1
    24    49     4    1
    25    58    23    1
    26    23    24   ar
    27    20    55    1
    28    20    19   ar
    29    60    25    1
    30     3    42    1
    31     3     4    1
    32     3    18    1
    33    42     1   am
    34     4     5    1
    35    24    19   ar
    36    24    59    1
    37    19    18    1
    38    61    25    1
    39    62    27    1
    40    25    26    1
    41    25     6    1
    42    18    54    1
    43    18    53    1
    44     1    48    2
    45     1    43   am
    46    27    26   ar
    47    27    28   ar
    48    26    31   ar
    49    63    28    1
    50     5    50    1
    51     5     6    1
    52     5    40    1
    53    50    72    1
    54    28    29   ar
    55     6    43    1
    56     6    41    1
    57    43     7    1
    58    31    66    1
    59    31    30   ar
    60    29    30   ar
    61    29    64    1
    62    30    65    1
    63     7    44    1
    64     7    45    1
    65     7    32    1
    66    67    33    1
    67    32    33   ar
    68    32    37   ar
    69    33    34   ar
    70    70    37    1
    71    37    36   ar
    72    34    68    1
    73    34    35   ar
    74    36    35   ar
    75    36    69    1
    76    35    14    1
