@<TRIPOS>MOLECULE
Mol_31
 72 76 0 0 0
SMALL
GASTEIGER
Energy = 0

@<TRIPOS>ATOM
      1 C           2.6676   -5.3303    0.4584 C.2     1  LIG11       0.3060
      2 C           3.4942   -5.3149   -1.8236 C.3     1  LIG11       0.0416
      3 C           2.9512   -3.1325   -0.6299 C.3     1  LIG11       0.0601
      4 C           1.5692   -2.4496   -0.4977 C.3     1  LIG11       0.1016
      5 C           0.9738   -2.6354    0.9224 C.3     1  LIG11       0.1016
      6 C           0.6721   -4.1174    1.2449 C.3     1  LIG11       0.0601
      7 C           1.9595   -5.6798    2.7733 C.3     1  LIG11       0.0416
      8 C           2.9651   -4.7823   -3.1684 C.ar    1  LIG11      -0.0300
      9 C           1.6056   -4.8830   -3.4862 C.ar    1  LIG11      -0.0560
     10 C           1.1160   -4.4242   -4.7123 C.ar    1  LIG11      -0.0475
     11 C           1.9989   -3.9087   -5.6633 C.ar    1  LIG11       0.0179
     12 C           3.3565   -3.7940   -5.3532 C.ar    1  LIG11      -0.0475
     13 C           3.8313   -4.2014   -4.1026 C.ar    1  LIG11      -0.0560
     14 BR          3.5731   -1.9887    7.4919 Br      1  LIG11      -0.0503
     15 BR          1.3721   -3.3852   -7.3263 Br      1  LIG11      -0.0503
     16 H           3.2374   -6.3871   -1.8306 H       1  LIG11       0.0514
     17 H           4.5914   -5.2413   -1.7755 H       1  LIG11       0.0514
     18 C           4.0027   -2.5781    0.3803 C.3     1  LIG11      -0.0064
     19 C           5.4370   -2.5933   -0.1796 C.ar    1  LIG11      -0.0455
     20 C           5.9256   -1.4929   -0.8952 C.ar    1  LIG11      -0.0585
     21 C           7.2353   -1.4856   -1.3867 C.ar    1  LIG11      -0.0615
     22 C           8.0678   -2.5853   -1.1688 C.ar    1  LIG11      -0.0617
     23 C           7.5860   -3.6891   -0.4582 C.ar    1  LIG11      -0.0615
     24 C           6.2756   -3.6948    0.0292 C.ar    1  LIG11      -0.0585
     25 C          -0.3201   -4.7823    0.2480 C.3     1  LIG11      -0.0064
     26 C          -0.9797   -6.0541    0.8067 C.ar    1  LIG11      -0.0455
     27 C          -0.3863   -7.3089    0.6199 C.ar    1  LIG11      -0.0585
     28 C          -1.0072   -8.4651    1.1022 C.ar    1  LIG11      -0.0615
     29 C          -2.2236   -8.3751    1.7847 C.ar    1  LIG11      -0.0617
     30 C          -2.8181   -7.1259    1.9798 C.ar    1  LIG11      -0.0615
     31 C          -2.1961   -5.9713    1.4944 C.ar    1  LIG11      -0.0585
     32 C           2.3377   -4.7099    3.9075 C.ar    1  LIG11      -0.0300
     33 C           3.6632   -4.2820    4.0521 C.ar    1  LIG11      -0.0560
     34 C           4.0332   -3.4529    5.1165 C.ar    1  LIG11      -0.0475
     35 C           3.0794   -3.0493    6.0543 C.ar    1  LIG11       0.0179
     36 C           1.7499   -3.4511    5.9030 C.ar    1  LIG11      -0.0475
     37 C           1.3786   -4.2585    4.8233 C.ar    1  LIG11      -0.0560
     38 H           3.3086   -2.7667   -1.6080 H       1  LIG11       0.0531
     39 H           0.9060   -2.8783   -1.2680 H       1  LIG11       0.0638
     40 H           1.6787   -2.2809    1.6930 H       1  LIG11       0.0638
     41 H           0.0958   -4.0474    2.1834 H       1  LIG11       0.0531
     42 N           2.9328   -4.6015   -0.6655 N.am    1  LIG11      -0.2752
     43 N           1.8366   -4.9775    1.4836 N.am    1  LIG11      -0.2752
     44 H           2.7195   -6.4758    2.7927 H       1  LIG11       0.0514
     45 H           1.0029   -6.1741    3.0045 H       1  LIG11       0.0514
     46 H           0.9147   -5.3291   -2.7867 H       1  LIG11       0.0621
     47 H           0.0529   -4.4734   -4.9282 H       1  LIG11       0.0629
     48 O           3.2306   -6.4090    0.5436 O.2     1  LIG11      -0.2524
     49 O           1.7512   -1.0510   -0.8012 O.3     1  LIG11      -0.3873
     50 O          -0.2623   -1.9055    1.0720 O.3     1  LIG11      -0.3873
     51 H           4.0441   -3.3885   -6.0881 H       1  LIG11       0.0629
     52 H           4.8814   -4.0660   -3.8653 H       1  LIG11       0.0621
     53 H           3.9685   -3.1471    1.3195 H       1  LIG11       0.0332
     54 H           3.7780   -1.5295    0.6299 H       1  LIG11       0.0332
     55 H           5.2912   -0.6301   -1.0733 H       1  LIG11       0.0620
     56 H           7.6062   -0.6253   -1.9367 H       1  LIG11       0.0618
     57 H           9.0852   -2.5821   -1.5496 H       1  LIG11       0.0618
     58 H           8.2343   -4.5427   -0.2850 H       1  LIG11       0.0618
     59 H           5.9107   -4.5592    0.5746 H       1  LIG11       0.0620
     60 H           0.2160   -5.0671   -0.6595 H       1  LIG11       0.0332
     61 H          -1.1135   -4.0756   -0.0431 H       1  LIG11       0.0332
     62 H           0.5601   -7.3939    0.0950 H       1  LIG11       0.0620
     63 H          -0.5457   -9.4357    0.9462 H       1  LIG11       0.0618
     64 H          -2.7053   -9.2726    2.1617 H       1  LIG11       0.0618
     65 H          -3.7644   -7.0530    2.5076 H       1  LIG11       0.0618
     66 H          -2.6688   -5.0072    1.6524 H       1  LIG11       0.0620
     67 H           4.4171   -4.5999    3.3391 H       1  LIG11       0.0621
     68 H           5.0626   -3.1237    5.2192 H       1  LIG11       0.0629
     69 H           1.0058   -3.1366    6.6282 H       1  LIG11       0.0629
     70 H           0.3363   -4.5367    4.7083 H       1  LIG11       0.0621
     71 H           0.9346   -0.5699   -0.8894 H       1  LIG11       0.2100
     72 H          -0.1490   -0.9615    1.1240 H       1  LIG11       0.2100
@<TRIPOS>BOND
     1    15    11    1
     2    51    12    1
     3    11    12   ar
     4    11    10   ar
     5    12    13   ar
     6    47    10    1
     7    10     9   ar
     8    13    52    1
     9    13     8   ar
    10     9     8   ar
    11     9    46    1
    12     8     2    1
    13    56    21    1
    14    16     2    1
    15     2    17    1
    16     2    42    1
    17    38     3    1
    18    57    22    1
    19    21    22   ar
    20    21    20   ar
    21    39     4    1
    22    22    23   ar
    23    55    20    1
    24    20    19   ar
    25    71    49    1
    26    49     4    1
    27    42     3    1
    28    42     1   am
    29    60    25    1
    30     3     4    1
    31     3    18    1
    32     4     5    1
    33    23    58    1
    34    23    24   ar
    35    19    24   ar
    36    19    18    1
    37    61    25    1
    38    24    59    1
    39    62    27    1
    40    25    26    1
    41    25     6    1
    42    18    54    1
    43    18    53    1
    44     1    48    2
    45     1    43   am
    46    27    26   ar
    47    27    28   ar
    48    26    31   ar
    49     5    50    1
    50     5     6    1
    51     5    40    1
    52    63    28    1
    53    50    72    1
    54    28    29   ar
    55     6    43    1
    56     6    41    1
    57    43     7    1
    58    31    66    1
    59    31    30   ar
    60    29    30   ar
    61    29    64    1
    62    30    65    1
    63     7    44    1
    64     7    45    1
    65     7    32    1
    66    67    33    1
    67    32    33   ar
    68    32    37   ar
    69    33    34   ar
    70    70    37    1
    71    37    36   ar
    72    34    68    1
    73    34    35   ar
    74    36    35   ar
    75    36    69    1
    76    35    14    1
