@<TRIPOS>MOLECULE
Mol_53
 77 81 0 0 0
SMALL
GASTEIGER
Energy = 0

@<TRIPOS>ATOM
      1 C           2.9369   -4.6772   -0.4211 C.2     1  LIG11       0.3057
      2 C           2.4514   -5.5749    1.7921 C.3     1  LIG11       0.0416
      3 C           0.9713   -3.7795    0.7504 C.3     1  LIG11       0.0601
      4 C           1.1230   -2.2378    0.7015 C.3     1  LIG11       0.1016
      5 C           1.6367   -1.7448   -0.6759 C.3     1  LIG11       0.1016
      6 C           3.0565   -2.2748   -0.9819 C.3     1  LIG11       0.0598
      7 C           3.6289   -4.0637   -2.6855 C.3     1  LIG11       0.0165
      8 C           2.7227   -4.9425    3.1705 C.ar    1  LIG11      -0.0295
      9 C           1.8301   -5.1070    4.2363 C.ar    1  LIG11      -0.0493
     10 C           2.1068   -4.5674    5.5004 C.ar    1  LIG11      -0.0176
     11 C           3.2632   -3.8004    5.6926 C.ar    1  LIG11      -0.0179
     12 C           4.1508   -3.6188    4.6270 C.ar    1  LIG11      -0.0537
     13 C           3.8966   -4.2127    3.3867 C.ar    1  LIG11      -0.0565
     14 C           1.2410   -4.7900    6.5782 C.ar    1  LIG11      -0.0540
     15 C           1.5125   -4.2361    7.8331 C.ar    1  LIG11      -0.0612
     16 C           2.6513   -3.4480    8.0154 C.ar    1  LIG11      -0.0612
     17 C           3.5228   -3.2288    6.9456 C.ar    1  LIG11      -0.0540
     18 C          -0.0516   -4.3112   -0.3010 C.3     1  LIG11      -0.0064
     19 C          -0.5635   -5.7155    0.0557 C.ar    1  LIG11      -0.0455
     20 C          -1.6600   -5.8649    0.9133 C.ar    1  LIG11      -0.0585
     21 C          -2.1288   -7.1381    1.2503 C.ar    1  LIG11      -0.0615
     22 C          -1.5059   -8.2734    0.7255 C.ar    1  LIG11      -0.0617
     23 C          -0.4202   -8.1309   -0.1429 C.ar    1  LIG11      -0.0615
     24 C           0.0492   -6.8566   -0.4758 C.ar    1  LIG11      -0.0585
     25 C           4.1319   -1.8866    0.0713 C.3     1  LIG11      -0.0064
     26 C           5.5584   -2.1332   -0.4510 C.ar    1  LIG11      -0.0455
     27 C           6.2786   -1.1024   -1.0675 C.ar    1  LIG11      -0.0585
     28 C           7.5848   -1.3180   -1.5182 C.ar    1  LIG11      -0.0615
     29 C           8.1811   -2.5720   -1.3622 C.ar    1  LIG11      -0.0617
     30 C           7.4668   -3.6073   -0.7538 C.ar    1  LIG11      -0.0615
     31 C           6.1602   -3.3890   -0.3065 C.ar    1  LIG11      -0.0585
     32 C           2.6143   -3.6498   -3.7885 C.3     1  LIG11      -0.0373
     33 C           2.9888   -4.2793   -5.1580 C.3     1  LIG11      -0.0545
     34 C           1.9732   -3.8868   -6.2610 C.3     1  LIG11      -0.0652
     35 H           3.3392   -6.2037    1.6204 H       1  LIG11       0.0514
     36 H           1.5937   -6.2624    1.8448 H       1  LIG11       0.0514
     37 H           0.4818   -3.9489    1.7259 H       1  LIG11       0.0531
     38 H           1.8111   -1.9412    1.5102 H       1  LIG11       0.0638
     39 H           0.9776   -2.0965   -1.4871 H       1  LIG11       0.0638
     40 H           3.3569   -1.6769   -1.8592 H       1  LIG11       0.0530
     41 H           3.8049   -5.1439   -2.8024 H       1  LIG11       0.0465
     42 N           2.1980   -4.5882    0.7227 N.am    1  LIG11      -0.2752
     43 N           3.1291   -3.6923   -1.3497 N.am    1  LIG11      -0.2796
     44 H           4.5959   -3.5675   -2.8687 H       1  LIG11       0.0465
     45 H           0.9148   -5.6689    4.0834 H       1  LIG11       0.0627
     46 H           5.0480   -3.0205    4.7562 H       1  LIG11       0.0624
     47 H           4.6271   -4.1131    2.5925 H       1  LIG11       0.0621
     48 O           3.4734   -5.7524   -0.6301 O.2     1  LIG11      -0.2524
     49 O          -0.1653   -1.6599    0.9964 O.3     1  LIG11      -0.3873
     50 O           1.6825   -0.3038   -0.7455 O.3     1  LIG11      -0.3873
     51 H           0.3499   -5.3971    6.4527 H       1  LIG11       0.0624
     52 H           0.8398   -4.4175    8.6660 H       1  LIG11       0.0618
     53 H           2.8581   -3.0080    8.9869 H       1  LIG11       0.0618
     54 H           4.4031   -2.6121    7.0991 H       1  LIG11       0.0624
     55 H           0.3958   -4.3549   -1.3035 H       1  LIG11       0.0332
     56 H          -0.9247   -3.6422   -0.3626 H       1  LIG11       0.0332
     57 H          -2.1564   -4.9904    1.3220 H       1  LIG11       0.0620
     58 H          -2.9774   -7.2456    1.9194 H       1  LIG11       0.0618
     59 H          -1.8650   -9.2632    0.9914 H       1  LIG11       0.0618
     60 H           0.0589   -9.0118   -0.5593 H       1  LIG11       0.0618
     61 H           0.8937   -6.7600   -1.1510 H       1  LIG11       0.0620
     62 H           4.0027   -2.4703    0.9892 H       1  LIG11       0.0332
     63 H           4.0262   -0.8222    0.3366 H       1  LIG11       0.0332
     64 H           5.8283   -0.1237   -1.1987 H       1  LIG11       0.0620
     65 H           8.1384   -0.5111   -1.9892 H       1  LIG11       0.0618
     66 H           9.1953   -2.7412   -1.7120 H       1  LIG11       0.0618
     67 H           7.9283   -4.5822   -0.6280 H       1  LIG11       0.0618
     68 H           5.6173   -4.2055    0.1567 H       1  LIG11       0.0620
     69 H           2.5762   -2.5545   -3.9008 H       1  LIG11       0.0280
     70 H           1.6107   -3.9963   -3.4961 H       1  LIG11       0.0280
     71 H           2.9977   -5.3785   -5.0679 H       1  LIG11       0.0263
     72 H           3.9986   -3.9478   -5.4524 H       1  LIG11       0.0263
     73 H           2.2192   -4.4074   -7.2001 H       1  LIG11       0.0230
     74 H           2.0029   -2.8012   -6.4420 H       1  LIG11       0.0230
     75 H           0.9517   -4.1693   -5.9615 H       1  LIG11       0.0230
     76 H          -0.1376   -0.7172    1.1277 H       1  LIG11       0.2100
     77 H           0.8257    0.1069   -0.8133 H       1  LIG11       0.2100
@<TRIPOS>BOND
     1    73    34    1
     2    74    34    1
     3    34    75    1
     4    34    33    1
     5    72    33    1
     6    33    71    1
     7    33    32    1
     8    69    32    1
     9    32    70    1
    10    32     7    1
    11    44     7    1
    12    41     7    1
    13     7    43    1
    14    65    28    1
    15    40     6    1
    16    66    29    1
    17    28    29   ar
    18    28    27   ar
    19    39     5    1
    20    29    30   ar
    21    43     6    1
    22    43     1   am
    23    55    18    1
    24    64    27    1
    25    61    24    1
    26    27    26   ar
    27     6     5    1
    28     6    25    1
    29    77    50    1
    30    30    67    1
    31    30    31   ar
    32    50     5    1
    33     5     4    1
    34    48     1    2
    35    60    23    1
    36    24    23   ar
    37    24    19   ar
    38    26    31   ar
    39    26    25    1
    40     1    42   am
    41    56    18    1
    42    31    68    1
    43    18    19    1
    44    18     3    1
    45    23    22   ar
    46    19    20   ar
    47    25    63    1
    48    25    62    1
    49     4     3    1
    50     4    49    1
    51     4    38    1
    52    42     3    1
    53    42     2    1
    54    22    59    1
    55    22    21   ar
    56     3    37    1
    57    20    21   ar
    58    20    57    1
    59    49    76    1
    60    21    58    1
    61    35     2    1
    62     2    36    1
    63     2     8    1
    64    47    13    1
    65     8    13   ar
    66     8     9   ar
    67    13    12   ar
    68    45     9    1
    69     9    10   ar
    70    12    46    1
    71    12    11   ar
    72    10    11   ar
    73    10    14   ar
    74    11    17   ar
    75    51    14    1
    76    14    15   ar
    77    17    54    1
    78    17    16   ar
    79    15    16   ar
    80    15    52    1
    81    16    53    1
