@<TRIPOS>MOLECULE
Mol_40
 80 84 0 0 0
SMALL
GASTEIGER
Energy = 0

@<TRIPOS>ATOM
      1 C           2.8662   -5.0921    0.2668 C.2     1  LIG11       0.3060
      2 C           2.3059   -5.6113    2.5932 C.3     1  LIG11       0.0416
      3 C           0.8359   -4.0713    1.2074 C.3     1  LIG11       0.0601
      4 C           1.0048   -2.5535    0.9481 C.3     1  LIG11       0.1016
      5 C           1.5403   -2.2526   -0.4728 C.3     1  LIG11       0.1016
      6 C           2.9502   -2.8341   -0.7296 C.3     1  LIG11       0.0601
      7 C           3.5706   -4.9213   -2.0477 C.3     1  LIG11       0.0416
      8 C           2.5155   -4.7292    3.8424 C.ar    1  LIG11      -0.0297
      9 C           3.6110   -3.8609    3.9121 C.ar    1  LIG11      -0.0571
     10 C           3.7951   -3.0171    5.0106 C.ar    1  LIG11      -0.0611
     11 C           2.9442   -3.1192    6.1127 C.ar    1  LIG11      -0.0564
     12 C           1.8779   -4.0240    6.0900 C.ar    1  LIG11      -0.0219
     13 C           1.6490   -4.7950    4.9420 C.ar    1  LIG11      -0.0517
     14 C           0.9871   -4.1519    7.3332 C.3     1  LIG11       0.0692
     15 H           3.2004   -6.2520    2.5641 H       1  LIG11       0.0514
     16 H           1.4466   -6.2842    2.7404 H       1  LIG11       0.0514
     17 C           4.3680   -2.2606   -6.3137 C.3     1  LIG11       0.0692
     18 C          -0.1449   -4.7366    0.1940 C.3     1  LIG11      -0.0064
     19 C          -0.7636   -6.0420    0.7206 C.ar    1  LIG11      -0.0455
     20 C          -0.1891   -7.2797    0.4075 C.ar    1  LIG11      -0.0585
     21 C          -0.7800   -8.4666    0.8511 C.ar    1  LIG11      -0.0615
     22 C          -1.9416   -8.4250    1.6277 C.ar    1  LIG11      -0.0617
     23 C          -2.5130   -7.1929    1.9546 C.ar    1  LIG11      -0.0615
     24 C          -1.9234   -6.0072    1.5045 C.ar    1  LIG11      -0.0585
     25 C           4.0347   -2.2809    0.2375 C.3     1  LIG11      -0.0064
     26 C           5.4698   -2.4285   -0.3027 C.ar    1  LIG11      -0.0455
     27 C           6.2384   -3.5636   -0.0185 C.ar    1  LIG11      -0.0585
     28 C           7.5536   -3.6667   -0.4863 C.ar    1  LIG11      -0.0615
     29 C           8.1100   -2.6377   -1.2498 C.ar    1  LIG11      -0.0617
     30 C           7.3462   -1.5049   -1.5453 C.ar    1  LIG11      -0.0615
     31 C           6.0329   -1.4058   -1.0774 C.ar    1  LIG11      -0.0585
     32 C           3.0334   -4.2914   -3.3462 C.ar    1  LIG11      -0.0297
     33 C           1.6888   -4.4462   -3.7031 C.ar    1  LIG11      -0.0571
     34 C           1.1933   -3.8653   -4.8736 C.ar    1  LIG11      -0.0611
     35 C           2.0473   -3.1473   -5.7152 C.ar    1  LIG11      -0.0564
     36 C           3.3995   -3.0080   -5.3852 C.ar    1  LIG11      -0.0219
     37 C           3.8775   -3.5620   -4.1915 C.ar    1  LIG11      -0.0517
     38 H           0.3080   -4.1161    2.1752 H       1  LIG11       0.0531
     39 H           1.6879   -2.1269    1.7018 H       1  LIG11       0.0638
     40 H           0.8634   -2.6672   -1.2384 H       1  LIG11       0.0638
     41 H           3.2305   -2.3858   -1.6973 H       1  LIG11       0.0531
     42 N           2.0743   -4.8439    1.3528 N.am    1  LIG11      -0.2752
     43 N           3.0211   -4.2977   -0.8342 N.am    1  LIG11      -0.2752
     44 H           3.3115   -5.9900   -2.1208 H       1  LIG11       0.0514
     45 H           4.6681   -4.8510   -2.0049 H       1  LIG11       0.0514
     46 H           4.3434   -3.8489    3.1182 H       1  LIG11       0.0621
     47 H           4.6025   -2.2902    5.0141 H       1  LIG11       0.0618
     48 O           3.4996   -6.1346    0.2677 O.2     1  LIG11      -0.2524
     49 O          -0.2719   -1.8858    1.0519 O.3     1  LIG11      -0.3873
     50 O           1.5949   -0.8256   -0.6680 O.3     1  LIG11      -0.3873
     51 H           3.1194   -2.4989    6.9868 H       1  LIG11       0.0621
     52 H           0.7947   -5.4618    4.9126 H       1  LIG11       0.0624
     53 H           0.3718   -4.9524   -0.7495 H       1  LIG11       0.0332
     54 H          -0.9792   -4.0565   -0.0405 H       1  LIG11       0.0332
     55 H           0.7185   -7.3252   -0.1863 H       1  LIG11       0.0620
     56 H          -0.3375   -9.4235    0.5916 H       1  LIG11       0.0618
     57 H          -2.3983   -9.3470    1.9755 H       1  LIG11       0.0618
     58 H          -3.4162   -7.1578    2.5569 H       1  LIG11       0.0618
     59 H          -2.3780   -5.0568    1.7660 H       1  LIG11       0.0620
     60 H           3.9590   -2.8151    1.1844 H       1  LIG11       0.0332
     61 H           3.8597   -1.2156    0.4542 H       1  LIG11       0.0332
     62 H           5.8197   -4.3732    0.5709 H       1  LIG11       0.0620
     63 H           8.1462   -4.5471   -0.2555 H       1  LIG11       0.0618
     64 H           9.1312   -2.7157   -1.6123 H       1  LIG11       0.0618
     65 H           7.7760   -0.7019   -2.1370 H       1  LIG11       0.0618
     66 H           5.4509   -0.5216   -1.3166 H       1  LIG11       0.0620
     67 H           1.0217   -5.0234   -3.0741 H       1  LIG11       0.0621
     68 H           0.1440   -3.9725   -5.1331 H       1  LIG11       0.0618
     69 H           1.6520   -2.7022   -6.6232 H       1  LIG11       0.0621
     70 H           4.9190   -3.4219   -3.9226 H       1  LIG11       0.0624
     71 H          -0.6863   -1.9666    1.9064 H       1  LIG11       0.2100
     72 H           0.7379   -0.4205   -0.5618 H       1  LIG11       0.2100
     73 O           4.7184   -0.9832   -5.7549 O.3     1  LIG11      -0.3904
     74 H           5.1355   -1.0530   -4.9017 H       1  LIG11       0.2098
     75 O           1.6950   -4.9462    8.3026 O.3     1  LIG11      -0.3904
     76 H           1.2307   -5.0337    9.1300 H       1  LIG11       0.2098
     77 H           0.0213   -4.6165    7.0757 H       1  LIG11       0.0607
     78 H           0.7900   -3.1435    7.7339 H       1  LIG11       0.0607
     79 H           3.9064   -2.0787   -7.2967 H       1  LIG11       0.0607
     80 H           5.2664   -2.8789   -6.4778 H       1  LIG11       0.0607
@<TRIPOS>BOND
     1    79    17    1
     2    69    35    1
     3    80    17    1
     4    17    73    1
     5    17    36    1
     6    73    74    1
     7    35    36   ar
     8    35    34   ar
     9    36    37   ar
    10    68    34    1
    11    34    33   ar
    12    37    70    1
    13    37    32   ar
    14    33    32   ar
    15    33    67    1
    16    32     7    1
    17    65    30    1
    18    44     7    1
    19     7    45    1
    20     7    43    1
    21    41     6    1
    22    64    29    1
    23    30    29   ar
    24    30    31   ar
    25    66    31    1
    26    29    28   ar
    27    40     5    1
    28    31    26   ar
    29    43     6    1
    30    43     1   am
    31    53    18    1
    32     6     5    1
    33     6    25    1
    34    50    72    1
    35    50     5    1
    36    28    63    1
    37    28    27   ar
    38     5     4    1
    39    26    27   ar
    40    26    25    1
    41    55    20    1
    42    54    18    1
    43    27    62    1
    44    18    19    1
    45    18     3    1
    46    25    61    1
    47    25    60    1
    48     1    48    2
    49     1    42   am
    50    20    19   ar
    51    20    21   ar
    52    56    21    1
    53    19    24   ar
    54    21    22   ar
    55     4    49    1
    56     4     3    1
    57     4    39    1
    58    49    71    1
    59     3    42    1
    60     3    38    1
    61    42     2    1
    62    24    59    1
    63    24    23   ar
    64    22    23   ar
    65    22    57    1
    66    23    58    1
    67    15     2    1
    68     2    16    1
    69     2     8    1
    70    46     9    1
    71     8     9   ar
    72     8    13   ar
    73     9    10   ar
    74    52    13    1
    75    13    12   ar
    76    10    47    1
    77    10    11   ar
    78    12    11   ar
    79    12    14    1
    80    11    51    1
    81    77    14    1
    82    14    78    1
    83    14    75    1
    84    75    76    1
