@<TRIPOS>MOLECULE
Mol_58
 77 82 0 0 0
SMALL
GASTEIGER
Energy = 0

@<TRIPOS>ATOM
      1 C           2.2436   -5.0445    0.7489 C.2     1  LIG11       0.3060
      2 C           3.2063   -5.4132   -1.4476 C.3     1  LIG11       0.0416
      3 C           2.7947   -3.0398   -0.5866 C.3     1  LIG11       0.0601
      4 C           1.4715   -2.2416   -0.6798 C.3     1  LIG11       0.1016
      5 C           0.7336   -2.2043    0.6831 C.3     1  LIG11       0.1016
      6 C           0.2996   -3.6037    1.1755 C.3     1  LIG11       0.0601
      7 C           1.3528   -5.0103    3.0311 C.3     1  LIG11       0.0417
      8 C           2.9720   -4.8644   -2.8655 C.ar    1  LIG11      -0.0295
      9 C           4.0359   -4.4550   -3.6773 C.ar    1  LIG11      -0.0493
     10 C           3.7963   -3.8670   -4.9272 C.ar    1  LIG11      -0.0176
     11 C           2.4792   -3.6737   -5.3642 C.ar    1  LIG11      -0.0179
     12 C           1.4161   -4.1079   -4.5668 C.ar    1  LIG11      -0.0537
     13 C           1.6660   -4.7457   -3.3491 C.ar    1  LIG11      -0.0565
     14 C           4.8599   -3.4670   -5.7444 C.ar    1  LIG11      -0.0540
     15 C           4.6141   -2.8701   -6.9850 C.ar    1  LIG11      -0.0612
     16 C           3.3001   -2.6579   -7.4090 C.ar    1  LIG11      -0.0612
     17 C           2.2351   -3.0526   -6.5962 C.ar    1  LIG11      -0.0540
     18 C           3.8120   -2.4352    0.4283 C.3     1  LIG11      -0.0064
     19 C           5.2671   -2.4928   -0.0734 C.ar    1  LIG11      -0.0455
     20 C           6.0384   -3.6491    0.0883 C.ar    1  LIG11      -0.0585
     21 C           7.3665   -3.6810   -0.3498 C.ar    1  LIG11      -0.0615
     22 C           7.9373   -2.5534   -0.9467 C.ar    1  LIG11      -0.0617
     23 C           7.1710   -1.3981   -1.1188 C.ar    1  LIG11      -0.0615
     24 C           5.8400   -1.3740   -0.6925 C.ar    1  LIG11      -0.0585
     25 C          -0.6661   -4.3452    0.2053 C.3     1  LIG11      -0.0064
     26 C          -1.1713   -5.6785    0.7797 C.ar    1  LIG11      -0.0455
     27 C          -2.2590   -5.7038    1.6601 C.ar    1  LIG11      -0.0585
     28 C          -2.7368   -6.9189    2.1611 C.ar    1  LIG11      -0.0615
     29 C          -2.1283   -8.1200    1.7866 C.ar    1  LIG11      -0.0617
     30 C          -1.0415   -8.1023    0.9089 C.ar    1  LIG11      -0.0615
     31 C          -0.5623   -6.8860    0.4145 C.ar    1  LIG11      -0.0585
     32 C           2.3155   -4.2564    3.9707 C.ar    1  LIG11      -0.0272
     33 C           3.6905   -4.2509    3.7131 C.ar    1  LIG11      -0.0389
     34 C           4.5541   -3.5160    4.5313 C.ar    1  LIG11       0.0279
     35 N           4.0803   -2.8683    5.6145 N.ar    1  LIG11      -0.2632
     36 C           2.7727   -2.9135    5.9384 C.ar    1  LIG11       0.0279
     37 C           1.8618   -3.5784    5.1107 C.ar    1  LIG11      -0.0389
     38 H           2.7272   -6.4061   -1.4178 H       1  LIG11       0.0514
     39 H           4.2791   -5.5610   -1.2569 H       1  LIG11       0.0514
     40 H           3.2633   -2.8142   -1.5583 H       1  LIG11       0.0531
     41 H           0.8505   -2.6987   -1.4674 H       1  LIG11       0.0638
     42 N           2.6502   -4.4986   -0.4354 N.am    1  LIG11      -0.2752
     43 N           1.3695   -4.4947    1.6436 N.am    1  LIG11      -0.2752
     44 H           1.3965   -1.7967    1.4650 H       1  LIG11       0.0638
     45 H          -0.3422   -3.3446    2.0352 H       1  LIG11       0.0531
     46 H           1.6142   -6.0769    3.0903 H       1  LIG11       0.0514
     47 H           0.3380   -4.9548    3.4540 H       1  LIG11       0.0514
     48 O           2.7102   -6.1377    1.0229 O.2     1  LIG11      -0.2524
     49 O           1.7857   -0.9051   -1.1187 O.3     1  LIG11      -0.3873
     50 O          -0.4596   -1.3938    0.6173 O.3     1  LIG11      -0.3873
     51 H           5.0559   -4.5879   -3.3315 H       1  LIG11       0.0627
     52 H           0.3892   -3.9560   -4.8852 H       1  LIG11       0.0624
     53 H           0.8374   -5.1459   -2.7794 H       1  LIG11       0.0621
     54 H           5.8868   -3.6155   -5.4249 H       1  LIG11       0.0624
     55 H           5.4430   -2.5709   -7.6191 H       1  LIG11       0.0618
     56 H           3.1072   -2.1879   -8.3690 H       1  LIG11       0.0618
     57 H           1.2179   -2.8743   -6.9314 H       1  LIG11       0.0624
     58 H           3.7391   -2.9502    1.3920 H       1  LIG11       0.0332
     59 H           3.5858   -1.3758    0.6183 H       1  LIG11       0.0332
     60 H           5.6092   -4.5270    0.5592 H       1  LIG11       0.0620
     61 H           7.9590   -4.5823   -0.2248 H       1  LIG11       0.0618
     62 H           8.9723   -2.5728   -1.2754 H       1  LIG11       0.0618
     63 H           7.6098   -0.5193   -1.5825 H       1  LIG11       0.0618
     64 H           5.2553   -0.4723   -0.8459 H       1  LIG11       0.0620
     65 H          -0.1618   -4.5821   -0.7349 H       1  LIG11       0.0332
     66 H          -1.5330   -3.7093   -0.0382 H       1  LIG11       0.0332
     67 H          -2.7416   -4.7778    1.9554 H       1  LIG11       0.0620
     68 H          -3.5833   -6.9318    2.8410 H       1  LIG11       0.0618
     69 H          -2.4981   -9.0643    2.1751 H       1  LIG11       0.0618
     70 H          -0.5699   -9.0337    0.6097 H       1  LIG11       0.0618
     71 H           0.2867   -6.8920   -0.2613 H       1  LIG11       0.0620
     72 H           4.0935   -4.8196    2.8830 H       1  LIG11       0.0636
     73 H           5.6138   -3.4620    4.3041 H       1  LIG11       0.0829
     74 H           2.4380   -2.4284    6.8503 H       1  LIG11       0.0829
     75 H           0.8086   -3.5654    5.3703 H       1  LIG11       0.0636
     76 H           1.0115   -0.3841   -1.3078 H       1  LIG11       0.2100
     77 H          -0.2950   -0.4564    0.6559 H       1  LIG11       0.2100
@<TRIPOS>BOND
     1    56    16    1
     2    55    15    1
     3    16    15   ar
     4    16    17   ar
     5    15    14   ar
     6    57    17    1
     7    17    11   ar
     8    14    54    1
     9    14    10   ar
    10    11    10   ar
    11    11    12   ar
    12    10     9   ar
    13    52    12    1
    14    12    13   ar
    15     9    51    1
    16     9     8   ar
    17    13     8   ar
    18    13    53    1
    19     8     2    1
    20    63    23    1
    21    40     3    1
    22    41     4    1
    23     2    38    1
    24     2    39    1
    25     2    42    1
    26    76    49    1
    27    62    22    1
    28    23    22   ar
    29    23    24   ar
    30    49     4    1
    31    22    21   ar
    32    64    24    1
    33    65    25    1
    34    24    19   ar
    35     4     3    1
    36     4     5    1
    37     3    42    1
    38     3    18    1
    39    42     1   am
    40    21    61    1
    41    21    20   ar
    42    71    31    1
    43    19    20   ar
    44    19    18    1
    45    66    25    1
    46    20    60    1
    47    25    26    1
    48    25     6    1
    49    31    26   ar
    50    31    30   ar
    51    18    59    1
    52    18    58    1
    53    70    30    1
    54    50    77    1
    55    50     5    1
    56     5     6    1
    57     5    44    1
    58     1    48    2
    59     1    43   am
    60    26    27   ar
    61    30    29   ar
    62     6    43    1
    63     6    45    1
    64    43     7    1
    65    27    67    1
    66    27    28   ar
    67    29    28   ar
    68    29    69    1
    69    28    68    1
    70    72    33    1
    71     7    46    1
    72     7    47    1
    73     7    32    1
    74    33    32   ar
    75    33    34   ar
    76    32    37   ar
    77    73    34    1
    78    34    35   ar
    79    37    75    1
    80    37    36   ar
    81    35    36   ar
    82    36    74    1
