@<TRIPOS>MOLECULE
Mol_34
 78 82 0 0 0
SMALL
GASTEIGER
Energy = 0

@<TRIPOS>ATOM
      1 C           3.1096   -5.0291    0.2013 C.2     1  LIG11       0.3060
      2 C           2.5200   -5.5385    2.5187 C.3     1  LIG11       0.0416
      3 C           1.0114   -4.0936    1.0797 C.3     1  LIG11       0.0601
      4 C           1.1454   -2.5709    0.8629 C.3     1  LIG11       0.1016
      5 C           1.6846   -2.2338   -0.5511 C.3     1  LIG11       0.1016
      6 C           3.1195   -2.7738   -0.7825 C.3     1  LIG11       0.0601
      7 C           3.8280   -4.8277   -2.1141 C.3     1  LIG11       0.0416
      8 C           2.6545   -4.5664    3.7073 C.ar    1  LIG11      -0.0300
      9 C           3.8609   -3.8989    3.9515 C.ar    1  LIG11      -0.0565
     10 C           4.0031   -3.0606    5.0644 C.ar    1  LIG11      -0.0498
     11 C           2.9417   -2.8809    5.9580 C.ar    1  LIG11       0.0548
     12 C           1.7294   -3.5312    5.7045 C.ar    1  LIG11      -0.0498
     13 C           1.5805   -4.3460    4.5790 C.ar    1  LIG11      -0.0565
     14 C           1.1986   -3.3734   -7.1917 C.3     1  LIG11       0.4174
     15 C           3.0885   -1.9911    7.2012 C.3     1  LIG11       0.4174
     16 H           3.4325   -6.1552    2.5215 H       1  LIG11       0.0514
     17 H           1.6811   -6.2320    2.6904 H       1  LIG11       0.0514
     18 C           0.0843   -4.7979    0.0459 C.3     1  LIG11      -0.0064
     19 C          -0.6419   -6.0235    0.6234 C.ar    1  LIG11      -0.0455
     20 C          -0.2300   -7.3277    0.3232 C.ar    1  LIG11      -0.0585
     21 C          -0.9185   -8.4244    0.8518 C.ar    1  LIG11      -0.0615
     22 C          -2.0195   -8.2247    1.6893 C.ar    1  LIG11      -0.0617
     23 C          -2.4365   -6.9254    1.9900 C.ar    1  LIG11      -0.0615
     24 C          -1.7508   -5.8311    1.4557 C.ar    1  LIG11      -0.0585
     25 C           4.1743   -2.2033    0.2155 C.3     1  LIG11      -0.0064
     26 C           5.6208   -2.3334   -0.3026 C.ar    1  LIG11      -0.0455
     27 C           6.3212   -3.5363   -0.1568 C.ar    1  LIG11      -0.0585
     28 C           7.6371   -3.6589   -0.6155 C.ar    1  LIG11      -0.0615
     29 C           8.2763   -2.5684   -1.2090 C.ar    1  LIG11      -0.0617
     30 C           7.5880   -1.3607   -1.3551 C.ar    1  LIG11      -0.0615
     31 C           6.2663   -1.2487   -0.9126 C.ar    1  LIG11      -0.0585
     32 C           3.1318   -4.3989   -3.4205 C.ar    1  LIG11      -0.0300
     33 C           1.8068   -4.7694   -3.6765 C.ar    1  LIG11      -0.0565
     34 C           1.1706   -4.4082   -4.8676 C.ar    1  LIG11      -0.0498
     35 C           1.8731   -3.7140   -5.8567 C.ar    1  LIG11       0.0548
     36 C           3.1992   -3.3425   -5.6097 C.ar    1  LIG11      -0.0498
     37 C           3.8127   -3.6554   -4.3924 C.ar    1  LIG11      -0.0565
     38 H           0.4451   -4.1465    2.0233 H       1  LIG11       0.0531
     39 H           1.8251   -2.1864    1.6421 H       1  LIG11       0.0638
     40 H           1.0426   -2.6793   -1.3300 H       1  LIG11       0.0638
     41 H           3.4032   -2.3237   -1.7502 H       1  LIG11       0.0531
     42 N           2.2756   -4.8141    1.2605 N.am    1  LIG11      -0.2752
     43 N           3.2418   -4.2328   -0.9003 N.am    1  LIG11      -0.2752
     44 H           3.7681   -5.9279   -2.1214 H       1  LIG11       0.0514
     45 H           4.8953   -4.5664   -2.1538 H       1  LIG11       0.0514
     46 H           4.7014   -4.0347    3.2776 H       1  LIG11       0.0621
     47 H           4.9466   -2.5504    5.2367 H       1  LIG11       0.0623
     48 O           3.8036   -6.0311    0.2346 O.2     1  LIG11      -0.2524
     49 O          -0.1665   -2.0104    1.0845 O.3     1  LIG11      -0.3873
     50 O           1.7046   -0.8067   -0.7544 O.3     1  LIG11      -0.3873
     51 H           0.8953   -3.4075    6.3885 H       1  LIG11       0.0623
     52 H           0.6183   -4.8118    4.3936 H       1  LIG11       0.0621
     53 F           1.3780   -4.4108   -8.0520 F       1  LIG11      -0.1659
     54 F           1.7440   -2.2499   -7.7306 F       1  LIG11      -0.1659
     55 F          -0.1350   -3.1688   -7.0159 F       1  LIG11      -0.1659
     56 F           1.8892   -1.4429    7.5377 F       1  LIG11      -0.1659
     57 F           3.9749   -0.9849    6.9731 F       1  LIG11      -0.1659
     58 F           3.5331   -2.7472    8.2401 F       1  LIG11      -0.1659
     59 H           0.6846   -5.1118   -0.8098 H       1  LIG11       0.0332
     60 H          -0.6957   -4.1149   -0.3259 H       1  LIG11       0.0332
     61 H           0.6240   -7.4990   -0.3246 H       1  LIG11       0.0620
     62 H          -0.5994   -9.4343    0.6116 H       1  LIG11       0.0618
     63 H          -2.5504   -9.0759    2.1051 H       1  LIG11       0.0618
     64 H          -3.2937   -6.7662    2.6372 H       1  LIG11       0.0618
     65 H          -2.0878   -4.8257    1.6886 H       1  LIG11       0.0620
     66 H           4.1148   -2.7271    1.1791 H       1  LIG11       0.0332
     67 H           3.9699   -1.1387    0.4107 H       1  LIG11       0.0332
     68 H           5.8472   -4.3887    0.3165 H       1  LIG11       0.0620
     69 H           8.1643   -4.6024   -0.5090 H       1  LIG11       0.0618
     70 H           9.3026   -2.6577   -1.5541 H       1  LIG11       0.0618
     71 H           8.0847   -0.5096   -1.8124 H       1  LIG11       0.0618
     72 H           5.7461   -0.3054   -1.0443 H       1  LIG11       0.0620
     73 H           1.2577   -5.3578   -2.9571 H       1  LIG11       0.0621
     74 H           0.1300   -4.6774   -5.0250 H       1  LIG11       0.0623
     75 H           3.7615   -2.8100   -6.3704 H       1  LIG11       0.0623
     76 H           4.8297   -3.3211   -4.2134 H       1  LIG11       0.0621
     77 H          -0.1715   -1.0667    1.2096 H       1  LIG11       0.2100
     78 H           0.8368   -0.4146   -0.7778 H       1  LIG11       0.2100
@<TRIPOS>BOND
     1    53    14    1
     2    54    14    1
     3    14    55    1
     4    14    35    1
     5    75    36    1
     6    35    36   ar
     7    35    34   ar
     8    36    37   ar
     9    74    34    1
    10    34    33   ar
    11    37    76    1
    12    37    32   ar
    13    33    32   ar
    14    33    73    1
    15    32     7    1
    16    45     7    1
    17    44     7    1
    18     7    43    1
    19    71    30    1
    20    41     6    1
    21    70    29    1
    22    30    29   ar
    23    30    31   ar
    24    40     5    1
    25    29    28   ar
    26    72    31    1
    27    31    26   ar
    28    43     6    1
    29    43     1   am
    30    59    18    1
    31     6     5    1
    32     6    25    1
    33    78    50    1
    34    50     5    1
    35    28    69    1
    36    28    27   ar
    37     5     4    1
    38    60    18    1
    39    61    20    1
    40    26    27   ar
    41    26    25    1
    42    27    68    1
    43    18    19    1
    44    18     3    1
    45     1    48    2
    46     1    42   am
    47    25    67    1
    48    25    66    1
    49    20    19   ar
    50    20    21   ar
    51    62    21    1
    52    19    24   ar
    53    21    22   ar
    54     4     3    1
    55     4    49    1
    56     4    39    1
    57     3    42    1
    58     3    38    1
    59    49    77    1
    60    42     2    1
    61    24    65    1
    62    24    23   ar
    63    22    23   ar
    64    22    63    1
    65    23    64    1
    66     2    16    1
    67     2    17    1
    68     2     8    1
    69    46     9    1
    70     8     9   ar
    71     8    13   ar
    72     9    10   ar
    73    52    13    1
    74    13    12   ar
    75    10    47    1
    76    10    11   ar
    77    12    11   ar
    78    12    51    1
    79    11    15    1
    80    57    15    1
    81    15    56    1
    82    15    58    1
