@<TRIPOS>MOLECULE
Mol_95
 94 100 0 0 0
SMALL
GASTEIGER
Energy = 0

@<TRIPOS>ATOM
      1 C           2.9794   -4.9749    0.0877 C.2     1  LIG11       0.3060
      2 C           2.4272   -5.6266    2.3773 C.3     1  LIG11       0.0416
      3 C           0.9159   -4.0442    1.0888 C.3     1  LIG11       0.0601
      4 C           1.0385   -2.5175    0.8644 C.3     1  LIG11       0.1016
      5 C           1.5312   -2.1678   -0.5657 C.3     1  LIG11       0.1016
      6 C           2.9601   -2.6928   -0.8413 C.3     1  LIG11       0.0601
      7 C           3.6984   -4.6917   -2.2236 C.3     1  LIG11       0.0416
      8 C           2.7417   -4.7657    3.6136 C.ar    1  LIG11      -0.0293
      9 C           1.8710   -4.7256    4.7081 C.ar    1  LIG11      -0.0449
     10 C           2.1899   -3.9785    5.8483 C.ar    1  LIG11       0.0370
     11 C           3.3343   -3.1764    5.8592 C.ar    1  LIG11      -0.0496
     12 C           4.2061   -3.2031    4.7684 C.ar    1  LIG11      -0.0607
     13 C           3.9274   -4.0233    3.6700 C.ar    1  LIG11      -0.0570
     14 C           1.3040   -4.0560    7.0704 C.2     1  LIG11       0.2443
     15 C           5.5870   -3.6514   -8.5978 C.3     1  LIG11       0.0235
     16 C           6.2979   -2.2948   -8.7744 C.3     1  LIG11      -0.0328
     17 C           7.1246   -3.5689   -8.5053 C.3     1  LIG11      -0.0328
     18 C          -0.0671   -4.7155    0.0887 C.3     1  LIG11      -0.0064
     19 C          -0.7581   -5.9762    0.6219 C.ar    1  LIG11      -0.0455
     20 C          -0.1887   -7.2433    0.4455 C.ar    1  LIG11      -0.0585
     21 C          -0.8388   -8.3798    0.9355 C.ar    1  LIG11      -0.0615
     22 C          -2.0608   -8.2543    1.6025 C.ar    1  LIG11      -0.0617
     23 C          -2.6393   -6.9929    1.7663 C.ar    1  LIG11      -0.0615
     24 C          -1.9892   -5.8578    1.2754 C.ar    1  LIG11      -0.0585
     25 C           4.0202   -2.1234    0.1483 C.3     1  LIG11      -0.0064
     26 C           5.4633   -2.2703   -0.3661 C.ar    1  LIG11      -0.0455
     27 C           6.2177   -3.4086   -0.0571 C.ar    1  LIG11      -0.0585
     28 C           7.5471   -3.5163   -0.4770 C.ar    1  LIG11      -0.0615
     29 C           8.1306   -2.4915   -1.2265 C.ar    1  LIG11      -0.0617
     30 C           7.3776   -1.3624   -1.5592 C.ar    1  LIG11      -0.0615
     31 C           6.0487   -1.2572   -1.1360 C.ar    1  LIG11      -0.0585
     32 C           2.9440   -4.3399   -3.5227 C.ar    1  LIG11      -0.0293
     33 C           3.6366   -3.8690   -4.6422 C.ar    1  LIG11      -0.0449
     34 C           2.9637   -3.6096   -5.8424 C.ar    1  LIG11       0.0370
     35 C           1.5694   -3.6857   -5.9026 C.ar    1  LIG11      -0.0496
     36 C           0.8610   -4.1326   -4.7880 C.ar    1  LIG11      -0.0607
     37 C           1.5595   -4.5059   -3.6380 C.ar    1  LIG11      -0.0570
     38 C           3.7368   -3.2680   -7.0946 C.2     1  LIG11       0.2443
     39 C           0.0770   -5.3962    8.7010 C.3     1  LIG11       0.0235
     40 C          -0.0270   -6.7890    9.3622 C.3     1  LIG11      -0.0328
     41 C          -1.1583   -6.2853    8.4428 C.3     1  LIG11      -0.0328
     42 N           2.1713   -4.8053    1.1793 N.am    1  LIG11      -0.2752
     43 N           3.0989   -4.1455   -0.9917 N.am    1  LIG11      -0.2752
     44 N           0.9759   -5.2699    7.5604 N.am    1  LIG11      -0.3085
     45 H           3.2820   -6.3150    2.2951 H       1  LIG11       0.0514
     46 N           4.9025   -3.8962   -7.3438 N.am    1  LIG11      -0.3085
     47 H           1.5454   -6.2602    2.5594 H       1  LIG11       0.0514
     48 O           3.6711   -5.9790    0.0663 O.2     1  LIG11      -0.2524
     49 O          -0.2645   -1.9486    1.1101 O.3     1  LIG11      -0.3873
     50 O           1.5540   -0.7397   -0.7742 O.3     1  LIG11      -0.3873
     51 O           0.9196   -3.0161    7.5808 O.2     1  LIG11      -0.2702
     52 O           3.2689   -2.4464   -7.8661 O.2     1  LIG11      -0.2702
     53 H           0.3972   -4.1111    2.0611 H       1  LIG11       0.0531
     54 H           1.7273   -2.1277    1.6320 H       1  LIG11       0.0638
     55 H           0.8723   -2.6135   -1.3295 H       1  LIG11       0.0638
     56 H           3.2181   -2.2272   -1.8094 H       1  LIG11       0.0531
     57 H           3.7403   -5.7917   -2.2459 H       1  LIG11       0.0514
     58 H           4.7369   -4.3290   -2.2723 H       1  LIG11       0.0514
     59 H           0.9380   -5.2786    4.6843 H       1  LIG11       0.0628
     60 H           3.5479   -2.5474    6.7185 H       1  LIG11       0.0625
     61 H           5.1039   -2.5917    4.7790 H       1  LIG11       0.0618
     62 H           4.6455   -4.0892    2.8613 H       1  LIG11       0.0621
     63 H           5.1869   -4.1305   -9.5056 H       1  LIG11       0.0498
     64 H           6.1759   -1.5787   -7.9473 H       1  LIG11       0.0284
     65 H           6.2831   -1.8908   -9.7982 H       1  LIG11       0.0284
     66 H           7.5858   -3.6357   -7.5077 H       1  LIG11       0.0284
     67 H           7.6935   -3.9825   -9.3519 H       1  LIG11       0.0284
     68 H           0.5113   -5.0329   -0.7709 H       1  LIG11       0.0332
     69 H          -0.8453   -4.0197   -0.2635 H       1  LIG11       0.0332
     70 H           0.7581   -7.3537   -0.0755 H       1  LIG11       0.0620
     71 H          -0.3953   -9.3614    0.7976 H       1  LIG11       0.0618
     72 H          -2.5609   -9.1352    1.9928 H       1  LIG11       0.0618
     73 H          -3.5938   -6.8929    2.2736 H       1  LIG11       0.0618
     74 H          -2.4482   -4.8820    1.4002 H       1  LIG11       0.0620
     75 H           3.9485   -2.6387    1.1128 H       1  LIG11       0.0332
     76 H           3.8339   -1.0544    0.3377 H       1  LIG11       0.0332
     77 H           5.7760   -4.2180    0.5140 H       1  LIG11       0.0620
     78 H           8.1284   -4.3967   -0.2200 H       1  LIG11       0.0618
     79 H           9.1648   -2.5722   -1.5489 H       1  LIG11       0.0618
     80 H           7.8276   -0.5665   -2.1454 H       1  LIG11       0.0618
     81 H           5.4745   -0.3770   -1.4075 H       1  LIG11       0.0620
     82 H           4.7072   -3.7092   -4.5838 H       1  LIG11       0.0628
     83 H           1.0399   -3.4165   -6.8115 H       1  LIG11       0.0625
     84 H          -0.2231   -4.2016   -4.8184 H       1  LIG11       0.0618
     85 H           0.9998   -4.9471   -2.8403 H       1  LIG11       0.0621
     86 H          -0.0917   -4.5327    9.3662 H       1  LIG11       0.0498
     87 H          -0.2532   -6.8221   10.4392 H       1  LIG11       0.0284
     88 H           0.6004   -7.5997    8.9605 H       1  LIG11       0.0284
     89 H          -2.1003   -5.9976    8.9347 H       1  LIG11       0.0284
     90 H          -1.2344   -6.7626    7.4533 H       1  LIG11       0.0284
     91 H           1.3539   -6.0977    7.1461 H       1  LIG11       0.1493
     92 H           5.2706   -4.5997   -6.7373 H       1  LIG11       0.1493
     93 H          -0.2625   -0.9987    1.1741 H       1  LIG11       0.2100
     94 H           0.6903   -0.3435   -0.8359 H       1  LIG11       0.2100
@<TRIPOS>BOND
     1    65    16    1
     2    63    15    1
     3    67    17    1
     4    16    15    1
     5    16    17    1
     6    16    64    1
     7    15    17    1
     8    15    46    1
     9    17    66    1
    10    52    38    2
    11    46    38   am
    12    46    92    1
    13    38    34    1
    14    83    35    1
    15    35    34   ar
    16    35    36   ar
    17    34    33   ar
    18    84    36    1
    19    36    37   ar
    20    33    82    1
    21    33    32   ar
    22    37    32   ar
    23    37    85    1
    24    32     7    1
    25    58     7    1
    26    57     7    1
    27     7    43    1
    28    80    30    1
    29    56     6    1
    30    30    29   ar
    31    30    31   ar
    32    79    29    1
    33    81    31    1
    34    55     5    1
    35    29    28   ar
    36    31    26   ar
    37    43     6    1
    38    43     1   am
    39     6     5    1
    40     6    25    1
    41    94    50    1
    42    50     5    1
    43    68    18    1
    44     5     4    1
    45    28    78    1
    46    28    27   ar
    47    26    27   ar
    48    26    25    1
    49    69    18    1
    50    70    20    1
    51    27    77    1
    52    48     1    2
    53     1    42   am
    54    18    19    1
    55    18     3    1
    56    25    76    1
    57    25    75    1
    58    20    19   ar
    59    20    21   ar
    60    19    24   ar
    61    71    21    1
    62     4     3    1
    63     4    49    1
    64     4    54    1
    65    21    22   ar
    66     3    42    1
    67     3    53    1
    68    49    93    1
    69    42     2    1
    70    24    74    1
    71    24    23   ar
    72    22    23   ar
    73    22    72    1
    74    23    73    1
    75    45     2    1
    76     2    47    1
    77     2     8    1
    78    62    13    1
    79     8    13   ar
    80     8     9   ar
    81    13    12   ar
    82    59     9    1
    83     9    10   ar
    84    12    61    1
    85    12    11   ar
    86    10    11   ar
    87    10    14    1
    88    11    60    1
    89    14    44   am
    90    14    51    2
    91    91    44    1
    92    90    41    1
    93    44    39    1
    94    41    39    1
    95    41    89    1
    96    41    40    1
    97    39    40    1
    98    39    86    1
    99    88    40    1
   100    40    87    1
