@<TRIPOS>MOLECULE
Mol_25
 84 90 0 0 0
SMALL
GASTEIGER
Energy = 0

@<TRIPOS>ATOM
      1 C           2.9098   -4.6472    0.2933 C.2     1  LIG11       0.3060
      2 C           1.9568   -5.3562    2.4291 C.3     1  LIG11       0.0416
      3 C           0.6842   -3.7643    0.9071 C.3     1  LIG11       0.0601
      4 C           0.8508   -2.2563    0.6180 C.3     1  LIG11       0.1016
      5 C           1.4454   -1.9754   -0.7848 C.3     1  LIG11       0.1016
      6 C           2.8964   -2.5012   -0.9570 C.3     1  LIG11       0.0601
      7 C           3.8602   -4.6734   -1.9110 C.3     1  LIG11       0.0416
      8 C           2.4579   -4.6894    3.7237 C.ar    1  LIG11      -0.0295
      9 C           2.0307   -5.1837    4.9609 C.ar    1  LIG11      -0.0493
     10 C           2.4852   -4.6237    6.1600 C.ar    1  LIG11      -0.0176
     11 C           3.3524   -3.5240    6.1403 C.ar    1  LIG11      -0.0179
     12 C           3.7733   -3.0116    4.9082 C.ar    1  LIG11      -0.0537
     13 C           3.3505   -3.6148    3.7208 C.ar    1  LIG11      -0.0565
     14 C           2.0798   -5.1636    7.3865 C.ar    1  LIG11      -0.0540
     15 C           4.0373   -3.2600   -8.3140 C.ar    1  LIG11      -0.0612
     16 C           5.3295   -3.2180   -7.7850 C.ar    1  LIG11      -0.0612
     17 C           5.5295   -3.4418   -6.4210 C.ar    1  LIG11      -0.0540
     18 C          -0.1736   -4.5017   -0.1641 C.3     1  LIG11      -0.0064
     19 C          -0.8946   -5.7376    0.3987 C.ar    1  LIG11      -0.0455
     20 C          -2.0149   -5.5753    1.2233 C.ar    1  LIG11      -0.0585
     21 C          -2.6953   -6.6886    1.7256 C.ar    1  LIG11      -0.0615
     22 C          -2.2605   -7.9768    1.4031 C.ar    1  LIG11      -0.0617
     23 C          -1.1435   -8.1461    0.5805 C.ar    1  LIG11      -0.0615
     24 C          -0.4596   -7.0311    0.0865 C.ar    1  LIG11      -0.0585
     25 C           3.9148   -1.7615   -0.0405 C.3     1  LIG11      -0.0064
     26 C           5.3820   -2.0532   -0.3766 C.ar    1  LIG11      -0.0455
     27 C           6.0731   -3.1089    0.2302 C.ar    1  LIG11      -0.0585
     28 C           7.4141   -3.3461   -0.0856 C.ar    1  LIG11      -0.0615
     29 C           8.0766   -2.5163   -0.9943 C.ar    1  LIG11      -0.0617
     30 C           7.3948   -1.4532   -1.5918 C.ar    1  LIG11      -0.0615
     31 C           6.0494   -1.2298   -1.2900 C.ar    1  LIG11      -0.0585
     32 C           4.6479   -3.9518   -4.2189 C.ar    1  LIG11      -0.0493
     33 C           4.4426   -3.7213   -5.5832 C.ar    1  LIG11      -0.0176
     34 C           3.1477   -3.7760   -6.1139 C.ar    1  LIG11      -0.0179
     35 C           2.0730   -4.0746   -5.2665 C.ar    1  LIG11      -0.0537
     36 C           2.2906   -4.3384   -3.9100 C.ar    1  LIG11      -0.0565
     37 C           3.5849   -4.3033   -3.3792 C.ar    1  LIG11      -0.0295
     38 C           2.9495   -3.5345   -7.4791 C.ar    1  LIG11      -0.0540
     39 C           2.5254   -4.6030    8.5855 C.ar    1  LIG11      -0.0612
     40 C           3.3781   -3.4965    8.5648 C.ar    1  LIG11      -0.0612
     41 C           3.7910   -2.9575    7.3426 C.ar    1  LIG11      -0.0540
     42 N           1.9106   -4.5084    1.2160 N.am    1  LIG11      -0.2752
     43 N           3.0994   -3.9573   -0.8715 N.am    1  LIG11      -0.2752
     44 H           0.9425   -5.7418    2.6153 H       1  LIG11       0.0514
     45 H           2.5759   -6.2591    2.3180 H       1  LIG11       0.0514
     46 H           0.0641   -3.7398    1.8199 H       1  LIG11       0.0531
     47 H           1.4863   -1.8322    1.4121 H       1  LIG11       0.0638
     48 O           3.7393   -5.5161    0.5073 O.2     1  LIG11      -0.2524
     49 O          -0.4521   -1.6468    0.7309 O.3     1  LIG11      -0.3873
     50 O           1.3279   -0.5670   -1.0774 O.3     1  LIG11      -0.3873
     51 H           0.8276   -2.4513   -1.5614 H       1  LIG11       0.0638
     52 H           3.1734   -2.1725   -1.9732 H       1  LIG11       0.0531
     53 H           3.6395   -5.7540   -1.8868 H       1  LIG11       0.0514
     54 H           4.9300   -4.5612   -1.6848 H       1  LIG11       0.0514
     55 H           1.3428   -6.0220    4.9858 H       1  LIG11       0.0627
     56 H           4.4349   -2.1506    4.8666 H       1  LIG11       0.0624
     57 H           3.7348   -3.2517    2.7881 H       1  LIG11       0.0621
     58 H           1.4178   -6.0233    7.4159 H       1  LIG11       0.0624
     59 H           3.8808   -3.0796   -9.3733 H       1  LIG11       0.0618
     60 H           6.1774   -3.0122   -8.4317 H       1  LIG11       0.0618
     61 H           6.5374   -3.3991   -6.0199 H       1  LIG11       0.0624
     62 H           0.4634   -4.7965   -1.0096 H       1  LIG11       0.0332
     63 H          -0.9624   -3.8388   -0.5541 H       1  LIG11       0.0332
     64 H          -2.3666   -4.5797    1.4758 H       1  LIG11       0.0620
     65 H          -3.5629   -6.5539    2.3649 H       1  LIG11       0.0618
     66 H          -2.7893   -8.8429    1.7900 H       1  LIG11       0.0618
     67 H          -0.8078   -9.1464    0.3242 H       1  LIG11       0.0618
     68 H           0.4102   -7.1786   -0.5454 H       1  LIG11       0.0620
     69 H           3.7475   -2.0335    0.9967 H       1  LIG11       0.0332
     70 H           3.8047   -0.6709   -0.0894 H       1  LIG11       0.0332
     71 H           5.5767   -3.7505    0.9505 H       1  LIG11       0.0620
     72 H           7.9423   -4.1748    0.3764 H       1  LIG11       0.0618
     73 H           9.1195   -2.6956   -1.2357 H       1  LIG11       0.0618
     74 H           7.9082   -0.7984   -2.2888 H       1  LIG11       0.0618
     75 H           5.5273   -0.4056   -1.7657 H       1  LIG11       0.0620
     76 H           1.0612   -4.1078   -5.6600 H       1  LIG11       0.0624
     77 H           1.4483   -4.5802   -3.2719 H       1  LIG11       0.0621
     78 H           5.6486   -3.8657   -3.8090 H       1  LIG11       0.0627
     79 H           1.9509   -3.5586   -7.9047 H       1  LIG11       0.0624
     80 H           2.2086   -5.0283    9.5328 H       1  LIG11       0.0618
     81 H           3.7195   -3.0575    9.4971 H       1  LIG11       0.0618
     82 H           4.4558   -2.0987    7.3395 H       1  LIG11       0.0624
     83 H          -0.4329   -0.6991    0.6360 H       1  LIG11       0.2100
     84 H           1.6882    0.0135   -0.4157 H       1  LIG11       0.2100
@<TRIPOS>BOND
     1    59    15    1
     2    60    16    1
     3    15    16   ar
     4    15    38   ar
     5    79    38    1
     6    16    17   ar
     7    38    34   ar
     8    17    61    1
     9    17    33   ar
    10    34    33   ar
    11    34    35   ar
    12    76    35    1
    13    33    32   ar
    14    35    36   ar
    15    32    78    1
    16    32    37   ar
    17    36    37   ar
    18    36    77    1
    19    37     7    1
    20    74    30    1
    21    52     6    1
    22     7    53    1
    23     7    54    1
    24     7    43    1
    25    75    31    1
    26    30    31   ar
    27    30    29   ar
    28    51     5    1
    29    31    26   ar
    30    73    29    1
    31    50     5    1
    32    50    84    1
    33    62    18    1
    34    29    28   ar
    35     6    43    1
    36     6     5    1
    37     6    25    1
    38    43     1   am
    39     5     4    1
    40    63    18    1
    41    68    24    1
    42    26    25    1
    43    26    27   ar
    44    18    19    1
    45    18     3    1
    46    70    25    1
    47    28    27   ar
    48    28    72    1
    49    25    69    1
    50    24    19   ar
    51    24    23   ar
    52    27    71    1
    53     1    48    2
    54     1    42   am
    55    67    23    1
    56    19    20   ar
    57    23    22   ar
    58     4    49    1
    59     4     3    1
    60     4    47    1
    61    83    49    1
    62     3    42    1
    63     3    46    1
    64    42     2    1
    65    20    64    1
    66    20    21   ar
    67    22    21   ar
    68    22    66    1
    69    21    65    1
    70    45     2    1
    71     2    44    1
    72     2     8    1
    73    57    13    1
    74    13     8   ar
    75    13    12   ar
    76     8     9   ar
    77    56    12    1
    78    12    11   ar
    79     9    55    1
    80     9    10   ar
    81    11    10   ar
    82    11    41   ar
    83    10    14   ar
    84    82    41    1
    85    41    40   ar
    86    14    58    1
    87    14    39   ar
    88    40    39   ar
    89    40    81    1
    90    39    80    1
