@<TRIPOS>MOLECULE
C02
 18 18 0 0 0
SMALL
GASTEIGER

@<TRIPOS>ATOM
      1 C           1.6145  -11.1921   74.1218 C.ar    1  LIG111      0.1262
      2 C           1.9205   -9.9025   74.5743 C.ar    1  LIG111     -0.0308
      3 C           3.1200   -9.2893   74.2048 C.ar    1  LIG111     -0.0485
      4 C           4.0871   -9.9815   73.4759 C.ar    1  LIG111      0.0292
      5 C           3.7478  -11.2336   72.9502 C.ar    1  LIG111     -0.0485
      6 C           2.5157  -11.8204   73.2523 C.ar    1  LIG111     -0.0308
      7 C           5.4723   -9.4128   73.2452 C.2     1  LIG111      0.2734
      8 C           6.0961   -8.3109   74.0126 C.2     1  LIG111      0.4260
      9 O           6.1243   -8.3027   75.2362 O.co2   1  LIG111     -0.2369
     10 O           6.1320   -9.9137   72.3533 O.2     1  LIG111     -0.2795
     11 O           6.7592   -7.2021   73.2476 O.co2   1  LIG111     -0.2369
     12 N           0.4729  -11.8158   74.5138 N.pl3   1  LIG111      0.0564
     13 H           1.2344   -9.3618   75.2169 H       1  LIG111      0.0640
     14 H           3.2981   -8.2648   74.4780 H       1  LIG111      0.0625
     15 H           4.4408  -11.7646   72.3050 H       1  LIG111      0.0625
     16 H           2.2674  -12.7733   72.7972 H       1  LIG111      0.0640
     17 O          -0.4153  -11.1378   74.9823 O.2     1  LIG111     -0.1261
     18 O           0.4046  -13.0183   74.3780 O.2     1  LIG111     -0.1261
@<TRIPOS>BOND
     1    15     5    1
     2    10     7    2
     3    16     6    1
     4     5     6   ar
     5     5     4   ar
     6     7     4    1
     7     7     8    1
     8    11     8   ar
     9     6     1   ar
    10     4     3   ar
    11     8     9   ar
    12     1    12    1
    13     1     2   ar
    14     3    14    1
    15     3     2   ar
    16    18    12    2
    17    12    17    2
    18     2    13    1
