@<TRIPOS>MOLECULE
C04
 18 18 0 0 0
SMALL
GASTEIGER

@<TRIPOS>ATOM
      1 C           2.7004  -12.0101   73.1883 C.ar    1  LIG111     -0.0609
      2 C           2.6723  -10.8829   74.0098 C.ar    1  LIG111     -0.0469
      3 C           3.6286   -9.8663   73.8694 C.ar    1  LIG111      0.0741
      4 C           4.7509  -10.0763   73.0604 C.ar    1  LIG111      0.0431
      5 C           4.6868  -11.1335   72.1443 C.ar    1  LIG111     -0.0499
      6 C           3.7017  -12.1218   72.2238 C.ar    1  LIG111     -0.0610
      7 C           6.0206   -9.2420   73.0955 C.2     1  LIG111      0.2742
      8 O           6.7685   -9.2842   72.1284 O.2     1  LIG111     -0.2795
      9 C           6.4992   -8.3934   74.2124 C.2     1  LIG111      0.4260
     10 O           6.9554   -6.9938   73.8942 O.co2   1  LIG111     -0.2369
     11 O           6.6204   -8.8878   75.6374 O.co2   1  LIG111     -0.2369
     12 H           1.9425  -12.7803   73.2939 H       1  LIG111      0.0618
     13 H           1.8855  -10.8033   74.7534 H       1  LIG111      0.0626
     14 C           3.3694   -8.5613   74.5849 C.2     1  LIG111      0.3872
     15 H           5.4082  -11.1892   71.3446 H       1  LIG111      0.0625
     16 H           3.7110  -12.9668   71.5418 H       1  LIG111      0.0618
     17 O           2.3816   -8.5475   75.3641 O.co2   1  LIG111     -0.2406
     18 O           4.0918   -7.5361   74.4090 O.co2   1  LIG111     -0.2406
@<TRIPOS>BOND
     1    15     5    1
     2    16     6    1
     3     8     7    2
     4     5     6   ar
     5     5     4   ar
     6     6     1   ar
     7     4     7    1
     8     4     3   ar
     9     7     9    1
    10     1    12    1
    11     1     2   ar
    12     3     2   ar
    13     3    14    1
    14    10     9   ar
    15     2    13    1
    16     9    11   ar
    17    18    14   ar
    18    14    17   ar
