@<TRIPOS>MOLECULE
C09
 22 23 0 0 0
SMALL
GASTEIGER

@<TRIPOS>ATOM
      1 C           1.9557  -11.1714   73.2868 C.ar    1  LIG111     -0.0359
      2 C           2.0841   -9.8965   73.8501 C.3     1  LIG111      0.0134
      3 C           3.3305   -9.2660   73.8852 C.2     1  LIG111     -0.0681
      4 C           4.4556   -9.8889   73.3424 C.2     1  LIG111      0.0116
      5 C           4.2765  -11.0707   72.6179 C.3     1  LIG111      0.0240
      6 C           3.0607  -11.7601   72.6600 C.ar    1  LIG111     -0.0352
      7 C           5.8542   -9.3456   73.5493 C.2     1  LIG111      0.2698
      8 C           6.1739   -7.9616   73.9244 C.2     1  LIG111      0.4257
      9 O           5.9368   -7.5298   75.0900 O.co2   1  LIG111     -0.2369
     10 O           6.8199  -10.0875   73.4562 O.2     1  LIG111     -0.2799
     11 O           6.7898   -7.2031   73.1192 O.co2   1  LIG111     -0.2369
     12 C           0.7395  -11.8624   73.3365 C.ar    1  LIG111     -0.0577
     13 H           1.2211   -9.3851   74.2661 H       1  LIG111      0.0400
     14 H           3.4209   -8.2942   74.3428 H       1  LIG111      0.0582
     15 H           5.0893  -11.4535   72.0186 H       1  LIG111      0.0408
     16 C           2.9428  -13.0276   72.0778 C.ar    1  LIG111     -0.0577
     17 C           1.7189  -13.7014   72.1034 C.ar    1  LIG111     -0.0615
     18 C           0.6197  -13.1219   72.7419 C.ar    1  LIG111     -0.0615
     19 H          -0.1201  -11.4267   73.8364 H       1  LIG111      0.0621
     20 H           3.7972  -13.4970   71.6013 H       1  LIG111      0.0621
     21 H           1.6230  -14.6750   71.6319 H       1  LIG111      0.0618
     22 H          -0.3278  -13.6510   72.7765 H       1  LIG111      0.0618
@<TRIPOS>BOND
     1    20    16    1
     2    21    17    1
     3    15     5    1
     4    16    17   ar
     5    16     6   ar
     6    17    18   ar
     7     5     6    1
     8     5     4    1
     9     6     1   ar
    10    18    22    1
    11    18    12   ar
    12    11     8   ar
    13     1    12   ar
    14     1     2    1
    15    12    19    1
    16     4     7    1
    17     4     3    2
    18    10     7    2
    19     7     8    1
    20     2     3    1
    21     2    13    1
    22     3    14    1
    23     8     9   ar
