@<TRIPOS>MOLECULE
C13
 24 25 0 0 0
SMALL
GASTEIGER

@<TRIPOS>ATOM
      1 C           2.4813  -11.5390   73.0791 C.ar    1  LIG111     -0.0179
      2 C           3.6212  -11.7040   72.2856 C.ar    1  LIG111     -0.0537
      3 C           4.6258  -10.7352   72.3083 C.ar    1  LIG111     -0.0550
      4 C           4.5800   -9.6556   73.1971 C.ar    1  LIG111     -0.0077
      5 C           3.4186   -9.4741   73.9563 C.ar    1  LIG111     -0.0479
      6 C           2.3950  -10.4310   73.9321 C.ar    1  LIG111     -0.0175
      7 C           5.8268   -8.7515   73.2755 C.3     1  LIG111      0.1810
      8 C           6.1070   -7.9510   74.5224 C.2     1  LIG111      0.3884
      9 O           6.4090   -8.5730   75.5835 O.co2   1  LIG111     -0.2431
     10 O           6.9401   -9.6491   73.2313 O.3     1  LIG111     -0.3761
     11 O           6.1299   -6.6884   74.5011 O.co2   1  LIG111     -0.2431
     12 C           1.4344  -12.4650   73.0134 C.ar    1  LIG111     -0.0540
     13 H           3.7307  -12.5732   71.6434 H       1  LIG111      0.0624
     14 H           5.4484  -10.8164   71.6114 H       1  LIG111      0.0621
     15 H           3.3134   -8.5819   74.5558 H       1  LIG111      0.0627
     16 C           1.2676  -10.3009   74.7529 C.ar    1  LIG111     -0.0540
     17 C           0.2015  -11.1979   74.6592 C.ar    1  LIG111     -0.0612
     18 C           0.2923  -12.2973   73.8025 C.ar    1  LIG111     -0.0612
     19 H           5.8555   -8.1016   72.3867 H       1  LIG111      0.0763
     20 H           1.4925  -13.3188   72.3450 H       1  LIG111      0.0624
     21 H           1.2077   -9.5023   75.4747 H       1  LIG111      0.0624
     22 H          -0.6960  -11.0399   75.2479 H       1  LIG111      0.0618
     23 H          -0.5203  -13.0147   73.7491 H       1  LIG111      0.0618
     24 H           6.8894  -10.2281   73.9856 H       1  LIG111      0.2110
@<TRIPOS>BOND
     1    14     3    1
     2    13     2    1
     3     2     3   ar
     4     2     1   ar
     5     3     4   ar
     6    20    12    1
     7    19     7    1
     8    12     1   ar
     9    12    18   ar
    10     1     6   ar
    11     4     7    1
    12     4     5   ar
    13    10     7    1
    14    10    24    1
    15     7     8    1
    16    23    18    1
    17    18    17   ar
    18     6     5   ar
    19     6    16   ar
    20     5    15    1
    21    11     8   ar
    22     8     9   ar
    23    17    16   ar
    24    17    22    1
    25    16    21    1
