@<TRIPOS>MOLECULE
C25
 76 82 0 0 0
SMALL
GASTEIGER

@<TRIPOS>ATOM
      1 C          -4.7846  -16.7956   77.6471 C.ar    1  LIG111      0.0415
      2 C          -4.4089  -16.9505   78.9911 C.ar    1  LIG111      0.0045
      3 C          -5.3037  -17.5141   79.9112 C.ar    1  LIG111     -0.0007
      4 C          -6.5877  -17.8896   79.4967 C.ar    1  LIG111     -0.0166
      5 C          -6.9808  -17.6765   78.1705 C.ar    1  LIG111     -0.0522
      6 C          -6.0829  -17.1300   77.2521 C.ar    1  LIG111     -0.0393
      7 O          -2.6067  -18.1002   76.9246 O.2     1  LIG111     -0.2698
      8 C          -3.1502  -16.5362   79.4355 C.ar    1  LIG111     -0.0516
      9 C          -2.7633  -16.7359   80.7624 C.ar    1  LIG111     -0.0534
     10 C          -3.6514  -17.3029   81.6787 C.ar    1  LIG111     -0.0167
     11 C          -4.9250  -17.6971   81.2499 C.ar    1  LIG111     -0.0024
     12 C          -2.8595  -17.0318   76.3865 C.2     1  LIG111      0.2486
     13 C           0.2750  -13.4392   74.6460 C.3     1  LIG111      0.1147
     14 O          -2.4805  -18.7943   72.6359 O.3     1  LIG111     -0.4874
     15 C          -1.4475  -19.0967   71.7458 C.ar    1  LIG111      0.1210
     16 C          -0.9138  -18.1049   70.9144 C.ar    1  LIG111     -0.0192
     17 C          -1.4496  -15.2239   75.3047 C.ar    1  LIG111     -0.0429
     18 C          -1.8872  -16.5527   75.3267 C.ar    1  LIG111      0.0438
     19 C          -1.3893  -17.4450   74.3689 C.ar    1  LIG111      0.0017
     20 C          -0.2043  -17.1109   73.7021 C.ar    1  LIG111     -0.0543
     21 C           0.2536  -15.7939   73.7087 C.ar    1  LIG111     -0.0550
     22 C          -0.3334  -14.8472   74.5519 C.ar    1  LIG111     -0.0097
     23 C           0.1655  -18.4000   70.0733 C.ar    1  LIG111     -0.0472
     24 O           0.7477  -13.0524   73.3470 O.3     1  LIG111     -0.4874
     25 N          -3.9183  -16.3354   76.7142 N.am    1  LIG111     -0.2810
     26 C           1.8411  -12.1836   73.2726 C.ar    1  LIG111      0.1210
     27 C           2.8929  -12.5095   72.4153 C.ar    1  LIG111     -0.0192
     28 C           3.9842  -11.6499   72.2785 C.ar    1  LIG111     -0.0472
     29 C           4.0094  -10.4150   72.9371 C.ar    1  LIG111      0.0293
     30 C           2.9868  -10.1241   73.8519 C.ar    1  LIG111     -0.0472
     31 C           1.9096  -11.0041   74.0246 C.ar    1  LIG111     -0.0192
     32 C           5.1283   -9.4470   72.5996 C.2     1  LIG111      0.2734
     33 C           5.4471   -8.2582   73.4042 C.2     1  LIG111      0.4260
     34 O           5.3524   -8.3275   74.6555 O.co2   1  LIG111     -0.2369
     35 O           5.8270   -7.2141   72.8061 O.co2   1  LIG111     -0.2369
     36 O           5.8066   -9.6434   71.6044 O.2     1  LIG111     -0.2795
     37 C           0.7090  -19.6907   70.0534 C.ar    1  LIG111      0.0293
     38 C           0.1289  -20.6941   70.8369 C.ar    1  LIG111     -0.0472
     39 C          -0.9467  -20.3995   71.6769 C.ar    1  LIG111     -0.0192
     40 C           1.9041  -20.0757   69.2078 C.2     1  LIG111      0.2734
     41 O           1.9095  -21.1613   68.6504 O.2     1  LIG111     -0.2795
     42 C           3.0889  -19.2194   69.0488 C.2     1  LIG111      0.4260
     43 O           4.3287  -19.8976   68.5486 O.co2   1  LIG111     -0.2369
     44 O           3.0393  -17.7612   69.3991 O.co2   1  LIG111     -0.2369
     45 C          -7.4728  -18.4704   80.4115 C.ar    1  LIG111     -0.0534
     46 H          -7.9848  -17.9354   77.8450 H       1  LIG111      0.0624
     47 H          -6.3946  -16.9705   76.2244 H       1  LIG111      0.0636
     48 H          -2.4579  -16.0480   78.7624 H       1  LIG111      0.0624
     49 H          -1.7698  -16.4466   81.0816 H       1  LIG111      0.0624
     50 C          -3.2720  -17.4708   83.0159 C.ar    1  LIG111     -0.0540
     51 C          -5.8160  -18.2651   82.1678 C.ar    1  LIG111     -0.0167
     52 H          -0.4423  -12.6932   75.0197 H       1  LIG111      0.0748
     53 H           1.1167  -13.5188   75.3508 H       1  LIG111      0.0748
     54 H          -1.3406  -17.1045   70.9267 H       1  LIG111      0.0654
     55 H          -1.9708  -14.4696   75.8845 H       1  LIG111      0.0629
     56 H           0.3711  -17.8632   73.1771 H       1  LIG111      0.0622
     57 H           1.0672  -15.5302   73.0442 H       1  LIG111      0.0621
     58 H           0.5623  -17.6215   69.4279 H       1  LIG111      0.0626
     59 H          -4.1360  -15.4561   76.2206 H       1  LIG111      0.1552
     60 H           2.8576  -13.4370   71.8497 H       1  LIG111      0.0654
     61 H           4.8078  -11.9547   71.6428 H       1  LIG111      0.0626
     62 H           3.0121   -9.2072   74.4311 H       1  LIG111      0.0626
     63 H           1.1284  -10.7609   74.7377 H       1  LIG111      0.0654
     64 H           0.5142  -21.7083   70.7975 H       1  LIG111      0.0626
     65 H          -1.3973  -21.1834   72.2761 H       1  LIG111      0.0654
     66 C          -2.1326  -18.7466   74.0320 C.3     1  LIG111      0.1153
     67 H          -3.1131  -18.8193   74.5373 H       1  LIG111      0.0748
     68 H          -1.5320  -19.6110   74.3446 H       1  LIG111      0.0748
     69 C          -4.1668  -18.0303   83.9303 C.ar    1  LIG111     -0.0606
     70 C          -5.4357  -18.4289   83.5052 C.ar    1  LIG111     -0.0540
     71 C          -7.0869  -18.6629   81.7397 C.ar    1  LIG111     -0.0534
     72 H          -8.4661  -18.7752   80.0986 H       1  LIG111      0.0624
     73 H          -2.2869  -17.1655   83.3573 H       1  LIG111      0.0624
     74 H          -3.8773  -18.1533   84.9697 H       1  LIG111      0.0618
     75 H          -6.1233  -18.8626   84.2247 H       1  LIG111      0.0624
     76 H          -7.7857  -19.1195   82.4332 H       1  LIG111      0.0624
@<TRIPOS>BOND
     1    43    42   ar
     2    41    40    2
     3    42    40    1
     4    42    44   ar
     5    40    37    1
     6    58    23    1
     7    37    23   ar
     8    37    38   ar
     9    23    16   ar
    10    64    38    1
    11    38    39   ar
    12    16    54    1
    13    16    15   ar
    14    36    32    2
    15    61    28    1
    16    39    15   ar
    17    39    65    1
    18    15    14    1
    19    60    27    1
    20    28    27   ar
    21    28    29   ar
    22    27    26   ar
    23    32    29    1
    24    32    33    1
    25    14    66    1
    26    35    33   ar
    27    29    30   ar
    28    57    21    1
    29    56    20    1
    30    26    24    1
    31    26    31   ar
    32    24    13    1
    33    33    34   ar
    34    20    21   ar
    35    20    19   ar
    36    21    22   ar
    37    30    31   ar
    38    30    62    1
    39    31    63    1
    40    66    68    1
    41    66    19    1
    42    66    67    1
    43    19    18   ar
    44    22    13    1
    45    22    17   ar
    46    13    52    1
    47    13    53    1
    48    17    18   ar
    49    17    55    1
    50    18    12    1
    51    59    25    1
    52    47     6    1
    53    12    25   am
    54    12     7    2
    55    25     1    1
    56     6     1   ar
    57     6     5   ar
    58     1     2   ar
    59    46     5    1
    60     5     4   ar
    61    48     8    1
    62     2     8   ar
    63     2     3   ar
    64     8     9   ar
    65     4     3   ar
    66     4    45   ar
    67     3    11   ar
    68    72    45    1
    69    45    71   ar
    70     9    49    1
    71     9    10   ar
    72    11    10   ar
    73    11    51   ar
    74    10    50   ar
    75    71    51   ar
    76    71    76    1
    77    51    70   ar
    78    50    73    1
    79    50    69   ar
    80    70    69   ar
    81    70    75    1
    82    69    74    1
