@<TRIPOS>MOLECULE
C33
 26 28 0 0 0
SMALL
GASTEIGER

@<TRIPOS>ATOM
      1 C           5.8300   -8.7429   74.0655 C.2     1  LIG111      0.2402
      2 C           6.6578   -8.1574   73.0042 C.2     1  LIG111      0.2677
      3 C           5.8380   -8.9723   72.1174 C.2     1  LIG111      0.1792
      4 C           5.0630   -9.5185   73.0609 C.2     1  LIG111      0.0781
      5 O           5.8542   -8.6633   75.2859 O.2     1  LIG111     -0.2829
      6 O           7.6231   -7.4113   72.9342 O.2     1  LIG111     -0.2799
      7 O           5.8950   -9.1283   70.7892 O.2     1  LIG111     -0.5026
      8 C           3.9289  -10.5136   73.1362 C.ar    1  LIG111     -0.0097
      9 C           3.9016  -11.6103   72.2650 C.ar    1  LIG111     -0.0409
     10 C           2.7805  -12.4338   72.3018 C.ar    1  LIG111      0.0500
     11 C           1.7696  -12.2437   73.2265 C.ar    1  LIG111      0.0494
     12 C           1.8197  -11.2052   74.1578 C.ar    1  LIG111     -0.0483
     13 C           2.9113  -10.3300   74.0863 C.ar    1  LIG111     -0.0530
     14 C           0.7709  -13.3374   72.9501 C.2     1  LIG111      0.2536
     15 C           2.3646  -13.6253   71.4785 C.2     1  LIG111      0.2536
     16 N           1.2214  -14.0508   71.9493 N.am    1  LIG111     -0.2372
     17 O           3.0169  -14.0799   70.5528 O.2     1  LIG111     -0.2695
     18 O          -0.2629  -13.4986   73.5774 O.2     1  LIG111     -0.2695
     19 C           0.5069  -15.2048   71.4082 C.3     1  LIG111      0.0115
     20 H           5.2216   -9.7022   70.4316 H       1  LIG111      0.2923
     21 H           4.7131  -11.8277   71.5859 H       1  LIG111      0.0631
     22 H           1.0370  -11.0876   74.9004 H       1  LIG111      0.0625
     23 H           2.9641   -9.4909   74.7734 H       1  LIG111      0.0624
     24 H           0.7380  -16.0870   72.0257 H       1  LIG111      0.0434
     25 H           0.8020  -15.4167   70.3682 H       1  LIG111      0.0434
     26 H          -0.5816  -15.0360   71.4267 H       1  LIG111      0.0434
@<TRIPOS>BOND
     1    25    19    1
     2    20     7    1
     3    17    15    2
     4     7     3    1
     5    19    26    1
     6    19    16    1
     7    19    24    1
     8    15    16   am
     9    15    10    1
    10    21     9    1
    11    16    14   am
    12     3     2    1
    13     3     4    2
    14     9    10   ar
    15     9     8   ar
    16    10    11   ar
    17     6     2    2
    18    14    11    1
    19    14    18    2
    20     2     1    1
    21     4     8    1
    22     4     1    1
    23     8    13   ar
    24    11    12   ar
    25     1     5    2
    26    13    12   ar
    27    13    23    1
    28    12    22    1
