@<TRIPOS>MOLECULE
C35
 27 29 0 0 0
SMALL
GASTEIGER

@<TRIPOS>ATOM
      1 C           5.8643   -8.7430   74.0446 C.2     1  LIG111      0.2536
      2 C           6.9187   -8.0552   73.2918 C.2     1  LIG111      0.2702
      3 C           6.1725   -8.5168   72.1336 C.2     1  LIG111      0.1931
      4 C           5.2034   -9.1704   72.7833 C.2     1  LIG111      0.1286
      5 O           5.6904   -8.9053   75.2415 O.2     1  LIG111     -0.2816
      6 O           7.9574   -7.4558   73.5257 O.2     1  LIG111     -0.2798
      7 O           6.4212   -8.3612   70.8262 O.2     1  LIG111     -0.5018
      8 N           4.1799   -9.8701   72.3790 N.pl3   1  LIG111     -0.3080
      9 C           2.8127   -9.7880   74.3425 C.ar    1  LIG111     -0.0399
     10 C           1.7963  -10.3499   75.1193 C.ar    1  LIG111     -0.0594
     11 C           1.1409  -11.5061   74.6969 C.ar    1  LIG111     -0.0539
     12 C           1.5565  -12.1476   73.5278 C.ar    1  LIG111     -0.0161
     13 C           3.2608  -10.4479   73.1929 C.ar    1  LIG111      0.0393
     14 C           2.6963  -11.6890   72.8517 C.ar    1  LIG111      0.0033
     15 C           3.2308  -12.4889   71.8314 C.ar    1  LIG111     -0.0523
     16 C           2.5030  -13.5681   71.3215 C.ar    1  LIG111     -0.0611
     17 C           1.2843  -13.9242   71.9044 C.ar    1  LIG111     -0.0612
     18 C           0.8337  -13.2393   73.0343 C.ar    1  LIG111     -0.0540
     19 H           5.7689   -8.8217   70.2972 H       1  LIG111      0.2924
     20 H           4.0566   -9.9611   71.3624 H       1  LIG111      0.1524
     21 H           3.2296   -8.8293   74.6241 H       1  LIG111      0.0636
     22 H           1.5009   -9.8943   76.0500 H       1  LIG111      0.0618
     23 H           0.3142  -11.8967   75.2812 H       1  LIG111      0.0624
     24 H           4.2145  -12.2859   71.4234 H       1  LIG111      0.0624
     25 H           2.8836  -14.1326   70.4760 H       1  LIG111      0.0618
     26 H           0.6947  -14.7355   71.4873 H       1  LIG111      0.0618
     27 H          -0.0801  -13.5638   73.5226 H       1  LIG111      0.0624
@<TRIPOS>BOND
     1    19     7    1
     2    25    16    1
     3     7     3    1
     4    16    15   ar
     5    16    17   ar
     6    20     8    1
     7    24    15    1
     8    26    17    1
     9    15    14   ar
    10    17    18   ar
    11     3     4    2
    12     3     2    1
    13     8     4    1
    14     8    13    1
    15     4     1    1
    16    14    13   ar
    17    14    12   ar
    18    18    27    1
    19    18    12   ar
    20    13     9   ar
    21     2     6    2
    22     2     1    1
    23    12    11   ar
    24     1     5    2
    25     9    21    1
    26     9    10   ar
    27    11    10   ar
    28    11    23    1
    29    10    22    1
