@<TRIPOS>MOLECULE
CPD_58-b
 81 85 0 0 0
SMALL
GASTEIGER

@<TRIPOS>ATOM
      1 C1          3.8481   -6.3786   15.2935 C.ar    4  NAPHTHALENE44   -0.1023
      2 C2          4.0152   -5.1606   15.9653 C.ar    4  NAPHTHALENE44   -0.1289
      3 C3          5.2834   -4.5862   16.0437 C.ar    4  NAPHTHALENE44   -0.1007
      4 C4          6.3666   -5.2448   15.4603 C.ar    4  NAPHTHALENE44   -0.1345
      5 ****        6.7757   -9.3013   10.3962 H       2  APM222      0.1290
      6 ****        5.2663  -10.4949    8.6489 H       2  APM222      0.1158
      7 ****        6.1807   -9.1207    8.0255 H       2  APM222      0.1098
      8 ****        2.8763  -10.3844    8.4567 H       2  APM222      0.1350
      9 ****        5.1442   -6.8475    7.7254 H       2  APM222      0.1647
     10 ****        3.0866   -5.6517    7.0737 H       2  APM222      0.1646
     11 ****        0.9177   -6.6970    7.3084 H       2  APM222      0.1361
     12 ****        3.9568   -9.9219   10.9576 H       2  APM222      0.2264
     13 ****       -1.6114   -9.3925    7.1344 H       2  APM222      0.2727
     14 ****       -0.6121   -8.0828    6.5554 H       2  APM222      0.2899
     15 ****        0.8429  -10.9366    9.0477 H       2  APM222      0.2914
     16 ****       -0.7841  -11.0108    8.4150 H       2  APM222      0.2735
     17 ****        7.5528   -6.1883    8.4182 H       3  PIP333      0.0842
     18 ****        7.7891   -7.8031    9.0863 H       3  PIP333      0.1023
     19 ****        9.6498   -6.3270    9.7840 H       3  PIP333      0.1045
     20 ****        8.6876   -6.8579   11.1947 H       3  PIP333      0.1079
     21 ****        8.4517   -4.1481    9.7392 H       3  PIP333      0.1247
     22 C           9.4787   -4.2956   11.6158 C.2     5  CO255       0.3043
     23 ****        6.8142   -3.5057   11.4880 H       3  PIP333      0.1036
     24 ****        6.9620   -5.1112   12.2590 H       3  PIP333      0.1150
     25 ****        4.9274   -5.0454   10.8566 H       3  PIP333      0.1308
     26 ****        5.8764   -4.5796    9.4319 H       3  PIP333      0.0749
     27 S           5.6519  -10.4436   12.6144 S.O2    1  TOS111      2.6232
     28 O1          6.9461  -11.0295   12.3202 O.2     1  TOS111     -0.8657
     29 O2          4.6577  -11.2143   13.3340 O.2     1  TOS111     -0.8662
     30 C5          7.2942   -7.0846   14.1597 C.ar    4  NAPHTHALENE44   -0.1254
     31 C6          7.1491   -8.3108   13.5111 C.ar    4  NAPHTHALENE44   -0.0687
     32 C7          5.8836   -8.8961   13.4543 C.ar    4  NAPHTHALENE44   -0.7274
     33 C8          4.7834   -8.2519   14.0286 C.ar    4  NAPHTHALENE44    0.0300
     34 C9          4.9347   -7.0287   14.6960 C.ar    4  NAPHTHALENE44   -0.0535
     35 C10         6.2074   -6.4513   14.7697 C.ar    4  NAPHTHALENE44    0.0066
     36 H1          2.8548   -6.8200   15.2402 H       4  NAPHTHALENE44    0.1344
     37 C           5.4829   -7.5608   10.4771 C.2     2  APM222      0.2737
     38 CA          5.7303   -9.0277   10.1873 C.3     2  APM222      0.0451
     39 CB          5.3714   -9.3996    8.7171 C.3     2  APM222     -0.1246
     40 CG          4.1016   -8.6782    8.2276 C.ar    2  APM222     -0.0594
     41 CD1         2.8629   -9.3356    8.1991 C.ar    2  APM222     -0.0756
     42 CD2         4.1877   -7.3563    7.7890 C.ar    2  APM222     -0.0552
     43 CE1         1.6718   -8.6761    7.8408 C.ar    2  APM222     -0.1362
     44 CE2         3.0240   -6.6776    7.4217 C.ar    2  APM222     -0.1105
     45 CZ          1.7825   -7.3183    7.5079 C.ar    2  APM222     -0.0843
     46 CF          0.3207   -9.3983    7.8109 C.3     2  APM222      0.3443
     47 O           4.4702   -7.3398   11.1232 O.2     2  APM222     -0.3665
     48 N           4.9373   -9.8199   11.1214 N.3     2  APM222     -0.8273
     49 NG1        -0.6941   -8.9222    7.1266 N.3     2  APM222     -0.3303
     50 NG2         0.1204  -10.5178    8.4639 N.3     2  APM222     -0.3267
     51 N1          6.2886   -6.5391   10.0606 N.am    3  PIP333     -0.3411
     52 C2          7.5522   -6.7673    9.3544 C.3     3  PIP333     -0.0187
     53 C3          8.6695   -6.2399   10.2832 C.3     3  PIP333     -0.1776
     54 C4          8.4054   -4.7560   10.6582 C.3     3  PIP333     -0.1077
     55 C5          7.0029   -4.5769   11.2980 C.3     3  PIP333     -0.1777
     56 C6          5.9101   -5.1577   10.3690 C.3     3  PIP333     -0.0104
     57 O          10.2216   -3.3737   11.3015 O.2     5  CO255      -0.3411
     58 O           9.5646   -4.9750   12.7742 O.3     5  CO255      -0.2517
     59 C1         10.5554   -4.4994   13.7167 C.3     6  CYCLOHEXYL66    0.0247
     60 H2          3.1651   -4.6673   16.4249 H       4  NAPHTHALENE44    0.1407
     61 H3          5.4317   -3.6437   16.5541 H       4  NAPHTHALENE44    0.1420
     62 H4          7.3459   -4.8183   15.5514 H       4  NAPHTHALENE44    0.1380
     63 H5          8.2656   -6.6298   14.1791 H       4  NAPHTHALENE44    0.1501
     64 H6          8.0102   -8.7911   13.0594 H       4  NAPHTHALENE44    0.1509
     65 H8          3.8039   -8.7120   13.9520 H       4  NAPHTHALENE44    0.1406
     66 C2         11.1483   -5.7258   14.4636 C.3     6  CYCLOHEXYL66   -0.1642
     67 C3         12.2436   -5.2729   15.4591 C.3     6  CYCLOHEXYL66   -0.1571
     68 C4         11.6312   -4.2844   16.4853 C.3     6  CYCLOHEXYL66   -0.1616
     69 C5         11.0180   -3.0502   15.7617 C.3     6  CYCLOHEXYL66   -0.1530
     70 C6          9.9509   -3.4949   14.7347 C.3     6  CYCLOHEXYL66   -0.1704
     71 ****       11.4177   -4.0368   13.2219 H       6  CYCLOHEXYL66    0.1200
     72 ****       11.5617   -6.4287   13.7160 H       6  CYCLOHEXYL66    0.0896
     73 ****       10.3973   -6.2650   15.0607 H       6  CYCLOHEXYL66    0.0864
     74 ****       12.6551   -6.1547   15.9805 H       6  CYCLOHEXYL66    0.0920
     75 ****       13.0676   -4.7832   14.9147 H       6  CYCLOHEXYL66    0.0867
     76 ****       10.8617   -4.8117   17.0816 H       6  CYCLOHEXYL66    0.0823
     77 ****       12.4180   -3.9496   17.1846 H       6  CYCLOHEXYL66    0.0895
     78 ****       10.5553   -2.3899   16.5125 H       6  CYCLOHEXYL66    0.0893
     79 ****       11.8006   -2.4934   15.2350 H       6  CYCLOHEXYL66    0.0889
     80 ****        9.1860   -3.9830   15.3415 H       6  CYCLOHEXYL66    0.0758
     81 ****        9.4764   -2.6485   14.2121 H       6  CYCLOHEXYL66    0.0964
@<TRIPOS>BOND
     1    27    32    1
     2    30    31   ar
     3    30    35   ar
     4    30    63    1
     5    35     4   ar
     6    35    34   ar
     7    34     1   ar
     8    38     5    1
     9    39     6    1
    10    39     7    1
    11    41     8    1
    12    42     9    1
    13    44    10    1
    14    45    11    1
    15    48    12    1
    16    49    13    1
    17    49    14    1
    18    50    15    1
    19    50    16    1
    20    52    17    1
    21    52    18    1
    22    53    19    1
    23    53    20    1
    24    54    21    1
    25    22    57    2
    26    55    23    1
    27    55    24    1
    28    56    25    1
    29    56    26    1
    30    34    33   ar
    31    27    29    2
    32    27    28    2
    33    33    32   ar
    34    33    65    1
    35    32    31   ar
    36    31    64    1
    37     1     2   ar
    38     1    36    1
    39    37    47    2
    40    37    38    1
    41    38    48    1
    42    38    39    1
    43    39    40    1
    44    40    42   ar
    45    40    41   ar
    46    41    43   ar
    47    43    46    1
    48    43    45   ar
    49    45    44   ar
    50    44    42   ar
    51    46    50    1
    52    46    49    1
    53    56    51    1
    54    51    52    1
    55    52    53    1
    56    53    54    1
    57    54    55    1
    58    55    56    1
    59    37    51   am
    60    48    27    1
    61    22    58    1
    62    54    22    1
    63    59    66    1
    64     2     3   ar
    65     2    60    1
    66     3     4   ar
    67     3    61    1
    68     4    62    1
    69    59    70    1
    70    70    69    1
    71    69    68    1
    72    68    67    1
    73    67    66    1
    74    58    59    1
    75    59    71    1
    76    66    72    1
    77    66    73    1
    78    67    74    1
    79    67    75    1
    80    68    76    1
    81    68    77    1
    82    69    78    1
    83    69    79    1
    84    70    80    1
    85    70    81    1
