@<TRIPOS>MOLECULE
CPD_14-b
 71 75 0 0 0
SMALL
GASTEIGER

@<TRIPOS>ATOM
      1 C1          4.8814   -6.0070   15.0360 C.2     4  NAPHTHALENE44    0.3033
      2 C2          5.2845   -4.6602   15.5938 C.ar    4  NAPHTHALENE44   -0.1080
      3 C3          6.6069   -4.2224   15.4663 C.ar    4  NAPHTHALENE44   -0.1116
      4 C4          7.6266   -5.1053   14.7824 C.2     4  NAPHTHALENE44    0.2945
      5 ****        6.7928   -9.1712   10.2593 H       2  APM222      0.1180
      6 ****        5.2572  -10.5132    8.5701 H       2  APM222      0.1171
      7 ****        6.1539   -9.1241    7.9439 H       2  APM222      0.1114
      8 ****        2.7935  -10.4555    8.4418 H       2  APM222      0.1345
      9 ****        5.0465   -6.9562    7.4907 H       2  APM222      0.1598
     10 ****        2.9708   -5.6901    7.1155 H       2  APM222      0.1647
     11 ****        0.7885   -6.7615    7.5033 H       2  APM222      0.1369
     12 ****        4.1031  -10.1353   10.9238 H       2  APM222      0.2336
     13 ****       -1.6412   -9.3571    7.1560 H       2  APM222      0.2733
     14 ****       -0.5953   -8.0189    6.6695 H       2  APM222      0.2949
     15 ****        0.8802  -11.0022    8.9953 H       2  APM222      0.2959
     16 ****       -0.7898  -11.0735    8.4213 H       2  APM222      0.2740
     17 ****        7.0161   -5.9682    8.2890 H       3  PIP333      0.0767
     18 ****        7.5572   -7.5056    8.9646 H       3  PIP333      0.0964
     19 ****        9.2144   -5.7139    9.3934 H       3  PIP333      0.0984
     20 ****        8.5197   -6.3008   10.9309 H       3  PIP333      0.0921
     21 ****        7.6240   -3.7718    9.3998 H       3  PIP333      0.0865
     22 C23         8.9383   -3.5420   11.1092 C.3     3  PIP333     -0.2106
     23 ****        6.1617   -3.3464   11.3898 H       3  PIP333      0.0988
     24 ****        6.7146   -4.8701   12.1307 H       3  PIP333      0.0906
     25 ****        4.5269   -5.1927   11.0583 H       3  PIP333      0.1273
     26 ****        5.1446   -4.6142    9.4995 H       3  PIP333      0.0716
     27 S           5.9331  -10.4861   12.4749 S.O2    1  TOS111      2.6276
     28 O1          7.0951  -11.2360   12.0387 O.2     1  TOS111     -0.8626
     29 O2          4.9804  -11.1007   13.3782 O.2     1  TOS111     -0.8543
     30 C5          8.1593   -7.2628   13.5712 C.ar    4  NAPHTHALENE44   -0.1129
     31 C6          7.7758   -8.4953   13.0354 C.ar    4  NAPHTHALENE44   -0.0301
     32 C7          6.4561   -8.9352   13.1675 C.ar    4  NAPHTHALENE44   -0.7270
     33 C8          5.5235   -8.1300   13.8258 C.ar    4  NAPHTHALENE44    0.0350
     34 C9          5.8992   -6.8856   14.3443 C.ar    4  NAPHTHALENE44   -0.1232
     35 C10         7.2230   -6.4520   14.2198 C.ar    4  NAPHTHALENE44   -0.0485
     36 O1          3.7264   -6.3870   15.1435 O.2     4  NAPHTHALENE44   -0.2676
     37 C           5.3068   -7.5954   10.4375 C.2     2  APM222      0.2704
     38 CA          5.7159   -9.0166   10.0944 C.3     2  APM222      0.0475
     39 CB          5.3477   -9.4177    8.6342 C.3     2  APM222     -0.1209
     40 CG          4.0468   -8.7435    8.1627 C.ar    2  APM222     -0.0580
     41 CD1         2.8125   -9.4033    8.1902 C.ar    2  APM222     -0.0693
     42 CD2         4.0966   -7.4333    7.6795 C.ar    2  APM222     -0.0583
     43 CE1         1.6241   -8.7245    7.8821 C.ar    2  APM222     -0.1460
     44 CE2         2.9226   -6.7237    7.4315 C.ar    2  APM222     -0.1070
     45 CZ          1.6901   -7.3553    7.5967 C.ar    2  APM222     -0.0856
     46 CF          0.2813   -9.4349    7.8434 C.3     2  APM222      0.3354
     47 O           4.2977   -7.5272   11.1223 O.2     2  APM222     -0.3702
     48 N           5.0699   -9.9091   11.0517 N.3     2  APM222     -0.8289
     49 NG1        -0.7167   -8.8993    7.1859 N.3     2  APM222     -0.3282
     50 NG2         0.1152  -10.5783    8.4569 N.3     2  APM222     -0.3235
     51 N1          5.9629   -6.4657   10.0380 N.am    3  PIP333     -0.3338
     52 C2          7.1883   -6.5082    9.2325 C.3     3  PIP333     -0.0203
     53 C3          8.2966   -5.7526   10.0035 C.3     3  PIP333     -0.1755
     54 C4          7.8278   -4.3112   10.3426 C.3     3  PIP333     -0.1060
     55 C5          6.5183   -4.3670   11.1741 C.3     3  PIP333     -0.1748
     56 C6          5.4228   -5.1561   10.4173 C.3     3  PIP333     -0.0134
     57 ****        9.8487   -3.4728   10.4924 H       3  PIP333      0.0806
     58 ****        9.1897   -4.0595   12.0477 H       3  PIP333      0.0873
     59 ****        8.6032   -2.5205   11.3495 H       3  PIP333      0.0819
     60 C2          4.3404   -3.8499   16.2369 C.ar    4  NAPHTHALENE44   -0.0836
     61 C3          6.9755   -2.9706   15.9735 C.ar    4  NAPHTHALENE44   -0.0810
     62 O4          8.7829   -4.7284   14.6793 O.2     4  NAPHTHALENE44   -0.2628
     63 H5          9.1913   -6.9399   13.4766 H       4  NAPHTHALENE44    0.1659
     64 H6          8.5058   -9.1089   12.5188 H       4  NAPHTHALENE44    0.1589
     65 H8          4.5030   -8.4810   13.9309 H       4  NAPHTHALENE44    0.1736
     66 C66         6.0327   -2.1640   16.6162 C.ar    4  NAPHTHALENE44   -0.1125
     67 C67         4.7138   -2.6040   16.7494 C.ar    4  NAPHTHALENE44   -0.1113
     68 ****        3.3131   -4.1813   16.3420 H       4  NAPHTHALENE44    0.1583
     69 ****        7.9966   -2.6162   15.8722 H       4  NAPHTHALENE44    0.1591
     70 ****        6.3233   -1.1947   17.0113 H       4  NAPHTHALENE44    0.1482
     71 ****        3.9797   -1.9802   17.2502 H       4  NAPHTHALENE44    0.1473
@<TRIPOS>BOND
     1    27    32    1
     2    30    31   ar
     3    30    35   ar
     4    30    63    1
     5    35     4    1
     6    35    34   ar
     7    34     1    1
     8    38     5    1
     9    39     6    1
    10    39     7    1
    11    41     8    1
    12    42     9    1
    13    44    10    1
    14    45    11    1
    15    48    12    1
    16    49    13    1
    17    49    14    1
    18    50    15    1
    19    50    16    1
    20    52    17    1
    21    52    18    1
    22    53    19    1
    23    53    20    1
    24    54    21    1
    25    54    22    1
    26    55    23    1
    27    55    24    1
    28    56    25    1
    29    56    26    1
    30    34    33   ar
    31    27    29    2
    32    27    28    2
    33    33    32   ar
    34    33    65    1
    35    32    31   ar
    36    31    64    1
    37     1     2    1
    38     1    36    2
    39    37    47    2
    40    37    38    1
    41    38    48    1
    42    38    39    1
    43    39    40    1
    44    40    42   ar
    45    40    41   ar
    46    41    43   ar
    47    43    46    1
    48    43    45   ar
    49    45    44   ar
    50    44    42   ar
    51    46    50    1
    52    46    49    1
    53    56    51    1
    54    51    52    1
    55    52    53    1
    56    53    54    1
    57    54    55    1
    58    55    56    1
    59    37    51   am
    60    48    27    1
    61    22    57    1
    62    22    58    1
    63    22    59    1
    64     2     3   ar
    65     2    60   ar
    66     3     4    1
    67     3    61   ar
    68     4    62    2
    69    61    66   ar
    70    60    67   ar
    71    66    67   ar
    72    60    68    1
    73    61    69    1
    74    66    70    1
    75    67    71    1
