@<TRIPOS>MOLECULE
R15
 10 10 0 0 0
SMALL
GASTEIGER
Energy = 0

@<TRIPOS>ATOM
      1 O          -1.1010    1.2680    0.9265 O.3     1  LIG11      -0.4548
      2 C          -0.4030    2.0893    0.0425 C.2     1  LIG11       0.3521
      3 C           0.8119    1.3613   -0.4264 C.2     1  LIG11       0.1422
      4 C           0.8216    0.1400    0.1713 C.2     1  LIG11       0.0809
      5 C          -0.3928    0.0133    1.0646 C.3     1  LIG11       0.1298
      6 H          -1.0876   -0.7987    0.7317 H       1  LIG11       0.0758
      7 H          -0.1226   -0.0993    2.1446 H       1  LIG11       0.0758
      8 CL          1.9308   -1.0871    0.0225 Cl      1  LIG11      -0.0830
      9 CL          1.8994    2.0174   -1.4938 Cl      1  LIG11      -0.0748
     10 O          -0.8755    3.1905   -0.1800 O.2     1  LIG11      -0.2439
@<TRIPOS>BOND
     1     9     3    1
     2     3     2    1
     3     3     4    2
     4    10     2    2
     5     8     4    1
     6     2     1    1
     7     4     5    1
     8     6     5    1
     9     1     5    1
    10     5     7    1
