@<TRIPOS>MOLECULE
R2
 17 17 0 0 0
SMALL
GASTEIGER
Energy = 0

@<TRIPOS>ATOM
      1 O          -1.1108    1.2626    0.9161 O.3     1  LIG11      -0.4268
      2 C          -0.4100    2.0887    0.0451 C.2     1  LIG11       0.3532
      3 C           0.8172    1.3613   -0.4224 C.2     1  LIG11       0.1324
      4 C           0.8240    0.1349    0.1559 C.2     1  LIG11       0.0552
      5 C          -0.3885    0.0207    1.0821 C.3     1  LIG11       0.2319
      6 H          -0.1158   -0.0908    2.1683 H       1  LIG11       0.1111
      7 O          -1.2908   -1.0046    0.8021 O.3     1  LIG11      -0.3413
      8 C          -1.8406   -1.0226   -0.5105 C.3     1  LIG11       0.0408
      9 H          -2.5404   -1.8954   -0.4901 H       1  LIG11       0.0525
     10 H          -2.3948   -0.0747   -0.7163 H       1  LIG11       0.0525
     11 H          -1.0311   -1.1771   -1.2656 H       1  LIG11       0.0525
     12 C           1.7674   -0.9874    0.0481 C.3     1  LIG11       0.1363
     13 H           1.3846   -1.8873    0.5993 H       1  LIG11       0.0684
     14 CL          1.9696   -1.4878   -1.6246 Cl      1  LIG11      -0.0995
     15 CL          3.3125   -0.5762    0.7746 Cl      1  LIG11      -0.0995
     16 CL          1.8997    2.0453   -1.4742 Cl      1  LIG11      -0.0759
     17 O          -0.8708    3.1942   -0.1783 O.2     1  LIG11      -0.2439
@<TRIPOS>BOND
     1    14    12    1
     2    16     3    1
     3    11     8    1
     4    10     8    1
     5     8     9    1
     6     8     7    1
     7     3     2    1
     8     3     4    2
     9    17     2    2
    10     2     1    1
    11    12     4    1
    12    12    13    1
    13    12    15    1
    14     4     5    1
    15     7     5    1
    16     1     5    1
    17     5     6    1
