@<TRIPOS>MOLECULE
R5
 13 13 0 0 0
SMALL
GASTEIGER
Energy = 0

@<TRIPOS>ATOM
      1 O          -1.1015    1.2696    0.9264 O.3     1  LIG11      -0.4560
      2 C          -0.4082    2.0901    0.0462 C.2     1  LIG11       0.3510
      3 C           0.8105    1.3584   -0.4249 C.2     1  LIG11       0.1297
      4 C           0.8250    0.1379    0.1711 C.2     1  LIG11       0.0247
      5 C          -0.3904    0.0131    1.0621 C.3     1  LIG11       0.1183
      6 H          -1.0851   -0.7979    0.7289 H       1  LIG11       0.0747
      7 H          -0.1198   -0.0989    2.1429 H       1  LIG11       0.0747
      8 C           1.8207   -0.9342    0.0220 C.3     1  LIG11       0.1337
      9 H           2.6425   -0.6480   -0.6842 H       1  LIG11       0.0683
     10 CL          1.0753   -2.3787   -0.6457 Cl      1  LIG11      -0.0996
     11 CL          2.5879   -1.2797    1.5640 Cl      1  LIG11      -0.0996
     12 CL          1.8925    2.0236   -1.4945 Cl      1  LIG11      -0.0760
     13 O          -0.8742    3.1933   -0.1825 O.2     1  LIG11      -0.2440
@<TRIPOS>BOND
     1    12     3    1
     2     9     8    1
     3    10     8    1
     4     3     2    1
     5     3     4    2
     6    13     2    2
     7     8     4    1
     8     8    11    1
     9     2     1    1
    10     4     5    1
    11     6     5    1
    12     1     5    1
    13     5     7    1
