@<TRIPOS>MOLECULE
S6
 11 11 0 0 0
SMALL
GASTEIGER
Energy = 0

@<TRIPOS>ATOM
      1 O          -1.1058    1.2640    0.9186 O.3     1  LIG11      -0.4258
      2 C          -0.4047    2.0900    0.0420 C.2     1  LIG11       0.3543
      3 C           0.8137    1.3628   -0.4260 C.2     1  LIG11       0.1450
      4 C           0.8255    0.1388    0.1613 C.2     1  LIG11       0.1112
      5 C          -0.3946    0.0137    1.0804 C.3     1  LIG11       0.2414
      6 H          -0.1377   -0.1319    2.1626 H       1  LIG11       0.1121
      7 O          -1.3086   -0.9710    0.7282 O.3     1  LIG11      -0.3534
      8 H          -1.6963   -0.7462   -0.1307 H       1  LIG11       0.2139
      9 CL          1.9339   -1.0832    0.0106 Cl      1  LIG11      -0.0800
     10 CL          1.9016    2.0299   -1.4865 Cl      1  LIG11      -0.0747
     11 O          -0.8728    3.1932   -0.1778 O.2     1  LIG11      -0.2439
@<TRIPOS>BOND
     1    10     3    1
     2     3     2    1
     3     3     4    2
     4    11     2    2
     5     8     7    1
     6     9     4    1
     7     2     1    1
     8     4     5    1
     9     7     5    1
    10     1     5    1
    11     5     6    1
