@<TRIPOS>MOLECULE
05
 49 52 0 0 0
SMALL
GASTEIGER

@<TRIPOS>ATOM
      1 ****        2.3148   -1.2142   -1.4555 C.3     1  WATER21111    0.0077
      2 ****        3.8519   -1.2431   -1.4830 C.3     1  WATER21111   -0.0130
      3 ****        4.4774    0.1555   -1.5264 C.3     1  WATER21111   -0.0105
      4 ****       -0.2472    3.4470    0.3921 O.2     1  WATER21111   -0.2911
      5 ****        3.8787    1.1182   -0.4906 C.3     1  WATER21111    0.0279
      6 C5          2.3657    1.0771   -0.3561 C.2     1  WATER21111   -0.0513
      7 C6          1.6963    2.2369   -0.1517 C.1     1  WATER21111   -0.1330
      8 C7          0.2290    2.3553    0.0960 C.1     1  WATER21111    0.2608
      9 ****       -0.6104    1.0578    0.0460 C.3     1  WATER21111   -0.0406
     10 ****        0.1244   -0.0319   -0.8211 C.3     1  WATER21111   -0.0110
     11 ****        1.6380   -0.2803   -0.3889 C.3     1  WATER21111   -0.0298
     12 ****       -0.7134   -1.3341   -0.9862 C.3     1  WATER21111   -0.0002
     13 ****       -2.2120   -1.1479   -1.3087 C.3     1  WATER21111    0.0114
     14 ****       -2.9121   -0.1121   -0.3912 C.3     1  WATER21111   -0.1145
     15 ****       -2.0686    1.2231   -0.4734 C.3     1  WATER21111   -0.0142
     16 ****       -3.0305    2.3116    0.0710 C.3     1  WATER21111   -0.0004
     17 ****       -4.4536    1.8547   -0.3290 C.3     1  WATER21111   -0.0111
     18 C18        -4.3171    0.4159   -0.9282 C.3     1  WATER21111    0.1353
     19 ****       -3.0715   -0.7031    1.0392 C.3     1  WATER21111    0.0612
     20 ****        1.7604   -0.9227    1.0259 C.3     1  WATER21111    0.0483
     21 ****       -4.2489    0.5116   -2.0493 H       1  WATER21111   -0.0060
     22 ****        1.9721   -0.9191   -2.4746 H       1  WATER21111    0.0069
     23 ****        1.9708   -2.2630   -1.3071 H       1  WATER21111    0.0074
     24 ****        4.2482   -1.8098   -0.6106 H       1  WATER21111    0.0089
     25 ****        4.1773   -1.8171   -2.3811 H       1  WATER21111    0.0096
     26 ****        4.2147    2.1484   -0.7527 H       1  WATER21111    0.0131
     27 ****        4.3590    0.5877   -2.5466 H       1  WATER21111    0.0100
     28 ****        2.2330    3.1916   -0.1389 H       1  WATER21111    0.0760
     29 ****        1.2936   -1.9263    1.0725 H       1  WATER21111   -0.0001
     30 O30        -5.4288   -0.3592   -0.6027 O.3     1  WATER21111   -0.3112
     31 ****       -0.6505    0.7244    1.1111 H       1  WATER21111    0.0368
     32 ****        0.1897    0.4026   -1.8540 H       1  WATER21111    0.0117
     33 ****       -0.2897   -1.9341   -1.8243 H       1  WATER21111    0.0049
     34 ****       -0.6256   -1.9773   -0.0835 H       1  WATER21111    0.0090
     35 ****       -2.3162   -0.8531   -2.3784 H       1  WATER21111    0.0036
     36 ****       -2.7102   -2.1412   -1.2330 H       1  WATER21111    0.0046
     37 ****       -1.9519    1.4801   -1.5615 H       1  WATER21111    0.0075
     38 ****       -2.8149    3.3039   -0.3768 H       1  WATER21111    0.0243
     39 ****       -2.9502    2.4370    1.1705 H       1  WATER21111    0.0201
     40 ****       -5.1358    1.8891    0.5456 H       1  WATER21111    0.0296
     41 ****       -4.8923    2.5374   -1.0877 H       1  WATER21111    0.0122
     42 ****       -3.6412   -1.6555    1.0175 H       1  WATER21111   -0.0023
     43 ****       -2.1008   -0.9348    1.5211 H       1  WATER21111   -0.0125
     44 ****       -3.6056   -0.0203    1.7292 H       1  WATER21111    0.0037
     45 ****        1.2869   -0.3004    1.8109 H       1  WATER21111   -0.0023
     46 ****        2.8194   -1.0544    1.3278 H       1  WATER21111   -0.0027
     47 ****        4.3222    0.9090    0.5122 H       1  WATER21111    0.0151
     48 ****       -5.4950   -1.1211   -1.1615 H       1  WATER21111    0.1800
     49 ****        5.5751    0.0764   -1.3563 H       1  WATER21111    0.0104
@<TRIPOS>BOND
     1     1    23    1
     2     1    22    1
     3     1    11    1
     4    11    20    1
     5    20    46    1
     6    20    45    1
     7    20    29    1
     8    10    11    1
     9    10    32    1
    10    10    12    1
    11    12    33    1
    12    12    34    1
    13    12    13    1
    14    13    36    1
    15    13    35    1
    16    13    14    1
    17    14    19    1
    18    19    44    1
    19    19    43    1
    20    19    42    1
    21    14    18    1
    22    18    30    1
    23    30    48    1
    24    18    21    1
    25    17    18    1
    26    17    41    1
    27    17    40    1
    28    16    17    1
    29    16    39    1
    30    16    38    1
    31    15    16    1
    32    15    37    1
    33    14    15    1
    34     9    15    1
    35     9    31    1
    36     9    10    1
    37     8     9    1
    38     7     8    2
    39     7    28    1
    40     6     7    2
    41     6    11    1
    42     5     6    1
    43     5    47    1
    44     5    26    1
    45     3     5    1
    46     3    49    1
    47     3    27    1
    48     2     3    1
    49     2    25    1
    50     2    24    1
    51     1     2    1
    52     8     4    2
