@<TRIPOS>MOLECULE
18
 46 49 0 0 0
SMALL
GASTEIGER

@<TRIPOS>ATOM
      1 ****        2.3438   -1.1257   -1.6101 C.3     1  WATER21111    0.0076
      2 ****        3.8833   -1.1933   -1.5438 C.3     1  WATER21111    0.0226
      3 C3          4.5227    0.0692   -1.0484 C.2     1  WATER21111   -0.0920
      4 ****       -0.0569    2.9979    0.8135 H       1  WATER21111    0.0094
      5 C5          3.8192    1.0833   -0.5055 C.1     1  WATER21111   -0.0484
      6 C5          2.3477    1.0778   -0.3760 C.1     1  WATER21111   -0.0728
      7 C6          1.6800    2.2382   -0.1681 C.2     1  WATER21111   -0.0752
      8 C7          0.1916    2.3952   -0.0915 C.3     1  WATER21111    0.0335
      9 ****       -0.5899    1.0585   -0.0387 C.3     1  WATER21111   -0.0148
     10 ****        0.1139   -0.0425   -0.9144 C.3     1  WATER21111   -0.0117
     11 ****        1.6286   -0.2830   -0.4921 C.3     1  WATER21111   -0.0194
     12 ****       -0.7358   -1.3402   -1.0616 C.3     1  WATER21111   -0.0030
     13 ****       -2.2551   -1.1603   -1.2919 C.3     1  WATER21111    0.0221
     14 ****       -2.8966   -0.1263   -0.3306 C.3     1  WATER21111   -0.1167
     15 ****       -2.0677    1.2053   -0.4876 C.3     1  WATER21111   -0.0268
     16 ****       -2.9866    2.3203    0.0747 C.3     1  WATER21111   -0.0019
     17 ****       -4.4195    1.8764   -0.3014 C.3     1  WATER21111   -0.0517
     18 ****       -4.3212    0.3897   -0.6899 C.2     1  WATER21111    0.2325
     19 ****       -3.0064   -0.7149    1.1055 C.3     1  WATER21111    0.0547
     20 ****        1.7599   -1.0055    0.8825 C.3     1  WATER21111    0.0505
     21 ****       -5.2207   -0.2639   -1.1905 O.2     1  WATER21111   -0.2735
     22 ****        2.0714   -0.7106   -2.6080 H       1  WATER21111    0.0059
     23 ****        1.9644   -2.1720   -1.6000 H       1  WATER21111    0.0048
     24 ****        4.2038   -2.0402   -0.8925 H       1  WATER21111    0.0102
     25 ****        4.2736   -1.4319   -2.5606 H       1  WATER21111    0.0103
     26 ****        2.2217    3.1841   -0.0669 H       1  WATER21111    0.0531
     27 ****       -0.1245    3.0092   -0.9682 H       1  WATER21111    0.0109
     28 ****       -0.5822    0.7391    1.0303 H       1  WATER21111    0.0187
     29 ****        0.1635    0.3842   -1.9510 H       1  WATER21111    0.0100
     30 ****       -0.3548   -1.9178   -1.9354 H       1  WATER21111    0.0066
     31 ****       -0.5983   -2.0048   -0.1809 H       1  WATER21111    0.0070
     32 ****       -2.4325   -0.8596   -2.3497 H       1  WATER21111    0.0101
     33 ****       -2.7455   -2.1536   -1.1833 H       1  WATER21111    0.0163
     34 ****       -2.0201    1.4290   -1.5892 H       1  WATER21111    0.0114
     35 ****       -2.7508    3.3068   -0.3759 H       1  WATER21111    0.0152
     36 ****       -2.8815    2.4488    1.1720 H       1  WATER21111    0.0159
     37 ****       -5.1253    2.0114    0.5447 H       1  WATER21111    0.0353
     38 ****       -4.8162    2.4768   -1.1472 H       1  WATER21111    0.0358
     39 ****       -3.6763   -1.5999    1.1130 H       1  WATER21111    0.0051
     40 ****       -2.0320   -1.0463    1.5128 H       1  WATER21111    0.0015
     41 ****       -3.4207    0.0128    1.8324 H       1  WATER21111   -0.0057
     42 ****        1.1922   -0.4916    1.6832 H       1  WATER21111   -0.0051
     43 H42         1.4003   -2.0531    0.8416 H       1  WATER21111   -0.0058
     44 ****        2.8129   -1.0485    1.2285 H       1  WATER21111   -0.0031
     45 ****        4.3409    1.9741   -0.1448 H       1  WATER21111    0.0540
     46 ****        5.6097    0.1201   -1.1379 H       1  WATER21111    0.0566
@<TRIPOS>BOND
     1     1     2    1
     2     2     3    1
     3     3    46    1
     4     3     5    2
     5     5     6    2
     6     6    11    1
     7    10    11    1
     8    10    29    1
     9    10    12    1
    10    12    30    1
    11    12    31    1
    12    12    13    1
    13    13    32    1
    14    13    14    1
    15    14    18    1
    16    17    18    1
    17    17    37    1
    18    17    38    1
    19    16    17    1
    20    15    16    1
    21    14    15    1
    22    15    34    1
    23     9    15    1
    24     9    10    1
    25     9    28    1
    26     8     9    1
    27     8    27    1
    28     8     4    1
    29     7     8    1
    30     7    26    1
    31     6     7    2
    32    16    36    1
    33    16    35    1
    34    18    21    2
    35    14    19    1
    36    19    41    1
    37    19    39    1
    38    19    40    1
    39    13    33    1
    40    11    20    1
    41    20    44    1
    42    20    43    1
    43    20    42    1
    44     1    11    1
    45     5    45    1
    46     2    25    1
    47     2    24    1
    48     1    22    1
    49     1    23    1
