@<TRIPOS>MOLECULE
22
 49 52 0 0 0
SMALL
GASTEIGER

@<TRIPOS>ATOM
      1 ****        2.3362   -1.2100   -1.5011 C.3     1  WATER21111    0.0095
      2 ****        3.8750   -1.2133   -1.5019 C.3     1  WATER21111   -0.0130
      3 C3          4.4822    0.1961   -1.5051 C.3     1  WATER21111    0.0201
      4 ****        2.2066    3.1481    0.1496 H       1  WATER21111    0.0060
      5 C5          3.6268    1.2211   -0.8217 C.2     1  WATER21111   -0.0683
      6 C5          2.3801    1.0324   -0.3250 C.2     1  WATER21111   -0.1267
      7 C6          1.6871    2.1862    0.3702 C.3     1  WATER21111    0.0376
      8 C7          0.2111    2.3578   -0.0114 C.3     1  WATER21111   -0.0007
      9 ****       -0.5893    1.0354    0.0232 C.3     1  WATER21111   -0.0140
     10 ****        0.1363   -0.0898   -0.8046 C.3     1  WATER21111   -0.0071
     11 ****        1.6538   -0.3330   -0.3860 C.3     1  WATER21111    0.0044
     12 ****       -0.7311   -1.3789   -0.9294 C.3     1  WATER21111   -0.0039
     13 ****       -2.2288   -1.1765   -1.2638 C.3     1  WATER21111    0.0206
     14 ****       -2.9056   -0.1044   -0.3706 C.3     1  WATER21111   -0.1164
     15 ****       -2.0380    1.2040   -0.5112 C.3     1  WATER21111   -0.0272
     16 ****       -2.9624    2.3533   -0.0328 C.3     1  WATER21111   -0.0016
     17 ****       -4.3816    1.9295   -0.4776 C.3     1  WATER21111   -0.0520
     18 ****       -4.2933    0.4326   -0.8282 C.2     1  WATER21111    0.2324
     19 ****       -3.1160   -0.6506    1.0713 C.3     1  WATER21111    0.0552
     20 ****        1.8403   -0.9647    1.0535 C.3     1  WATER21111    0.1793
     21 ****       -5.1756   -0.2123   -1.3694 O.2     1  WATER21111   -0.2738
     22 ****        2.0048   -0.8465   -2.5026 H       1  WATER21111    0.0016
     23 ****        1.9960   -2.2664   -1.4446 H       1  WATER21111    0.0240
     24 ****        4.2645   -1.7883   -0.6323 H       1  WATER21111    0.0095
     25 ****        4.2270   -1.7672   -2.4025 H       1  WATER21111    0.0072
     26 ****        1.7803    2.0546    1.4747 H       1  WATER21111    0.0057
     27 ****       -0.6475    0.7297    1.0947 H       1  WATER21111    0.0160
     28 ****        0.2027    0.3136   -1.8504 H       1  WATER21111    0.0084
     29 ****       -0.3153   -2.0171   -1.7420 H       1  WATER21111    0.0099
     30 ****       -0.6716   -1.9889   -0.0036 H       1  WATER21111    0.0186
     31 ****       -2.3343   -0.9012   -2.3379 H       1  WATER21111    0.0088
     32 ****       -2.7459   -2.1567   -1.1603 H       1  WATER21111    0.0165
     33 ****       -1.9232    1.3995   -1.6131 H       1  WATER21111    0.0114
     34 ****       -2.6796    3.3213   -0.4968 H       1  WATER21111    0.0149
     35 ****       -2.9171    2.5109    1.0647 H       1  WATER21111    0.0150
     36 ****       -5.1286    2.0964    0.3265 H       1  WATER21111    0.0346
     37 ****       -4.7208    2.5191   -1.3553 H       1  WATER21111    0.0356
     38 ****       -3.8022   -1.5230    1.0607 H       1  WATER21111    0.0053
     39 ****       -2.1758   -0.9871    1.5491 H       1  WATER21111    0.0016
     40 ****       -3.5608    0.1046    1.7506 H       1  WATER21111   -0.0074
     41 ****        1.1472   -0.4685    1.7844 H       1  WATER21111   -0.0208
     42 O42         1.6458   -2.3464    1.0816 O.3     1  WATER21111   -0.3259
     43 ****        2.8738   -0.7232    1.4277 H       1  WATER21111   -0.0200
     44 ****        4.1111    2.2010   -0.7508 H       1  WATER21111    0.0503
     45 ****        5.4836    0.1720   -1.0157 H       1  WATER21111    0.0105
     46 ****       -0.2424    3.0888    0.6964 H       1  WATER21111    0.0042
     47 ****        0.1504    2.8276   -1.0197 H       1  WATER21111    0.0094
     48 ****        4.6638    0.5281   -2.5547 H       1  WATER21111    0.0116
     49 ****        1.8034   -2.6892    1.9502 H       1  WATER21111    0.1829
@<TRIPOS>BOND
     1     1    11    1
     2    10    11    1
     3     9    10    1
     4     8     9    1
     5     7     8    1
     6     7     4    1
     7     7    26    1
     8     6     7    1
     9     6    11    1
    10     5     6    2
    11     3     5    1
    12     3    48    1
    13     2     3    1
    14     1     2    1
    15     2    25    1
    16     2    24    1
    17     3    45    1
    18     5    44    1
    19     8    46    1
    20     8    47    1
    21     9    27    1
    22     9    15    1
    23    15    33    1
    24    15    16    1
    25    16    17    1
    26    17    36    1
    27    17    37    1
    28    17    18    1
    29    14    18    1
    30    13    14    1
    31    13    31    1
    32    13    32    1
    33    12    13    1
    34    12    30    1
    35    10    12    1
    36    12    29    1
    37    14    19    1
    38    19    38    1
    39    19    40    1
    40    19    39    1
    41    14    15    1
    42    18    21    2
    43    16    35    1
    44    16    34    1
    45    10    28    1
    46    11    20    1
    47    20    41    1
    48    20    43    1
    49    20    42    1
    50    42    49    1
    51     1    23    1
    52     1    22    1
