@<TRIPOS>MOLECULE
25
 48 52 0 0 0
SMALL
GASTEIGER

@<TRIPOS>ATOM
      1 ****        2.3258   -1.2363   -1.4440 C.3     1  WATER21111    0.0046
      2 ****        3.8634   -1.2621   -1.4738 C.3     1  WATER21111   -0.0465
      3 C3          4.4882    0.1334   -1.4767 C.1     1  WATER21111    0.2508
      4 ****        2.2942    2.7675    0.9263 H       1  WATER21111    0.0760
      5 C5          3.6530    1.2363   -0.9126 C.1     1  WATER21111   -0.1030
      6 C5          2.3940    1.0818   -0.4305 C.2     1  WATER21111   -0.0388
      7 C6          1.6971    2.2769    0.1392 C.3     1  WATER21111   -0.0593
      8 C7          0.1723    2.2778    0.3369 C.3     1  WATER21111   -0.0812
      9 ****       -0.6200    0.9946    0.1029 C.3     1  WATER21111    0.0218
     10 ****        0.1350   -0.0602   -0.7908 C.3     1  WATER21111   -0.0178
     11 ****        1.6598   -0.2763   -0.3920 C.3     1  WATER21111   -0.0244
     12 ****       -0.7089   -1.3637   -0.9350 C.3     1  WATER21111   -0.0025
     13 ****       -2.2034   -1.1676   -1.2919 C.3     1  WATER21111    0.0204
     14 ****       -2.9131   -0.1103   -0.4051 C.3     1  WATER21111   -0.1176
     15 ****       -2.0429    1.2040   -0.4775 C.3     1  WATER21111   -0.0315
     16 ****       -2.9820    2.3391    0.0021 C.3     1  WATER21111   -0.0019
     17 ****       -4.3788    1.9323   -0.5237 C.3     1  WATER21111   -0.0502
     18 ****       -4.2809    0.4432   -0.9045 C.2     1  WATER21111    0.2325
     19 ****       -3.1839   -0.6934    1.0126 C.3     1  WATER21111    0.0527
     20 ****        1.8366   -0.8743    1.0362 C.3     1  WATER21111    0.0467
     21 ****       -5.1413   -0.1889   -1.4927 O.2     1  WATER21111   -0.2684
     22 ****        1.9776   -0.9624   -2.4668 H       1  WATER21111    0.0149
     23 ****        1.9856   -2.2821   -1.2715 H       1  WATER21111    0.0139
     24 ****        4.2677   -1.8245   -0.6015 H       1  WATER21111    0.0319
     25 ****        4.1855   -1.8286   -2.3772 H       1  WATER21111    0.0377
     26 ****        1.4407   -1.9068    1.1066 H       1  WATER21111    0.0026
     27 ****       -0.7249    0.5669    1.1317 H       1  WATER21111    0.0236
     28 ****        0.1754    0.3659   -1.8264 H       1  WATER21111    0.0221
     29 ****       -0.2795   -1.9914   -1.7487 H       1  WATER21111    0.0103
     30 ****       -0.6382   -1.9793   -0.0116 H       1  WATER21111    0.0082
     31 ****       -2.2863   -0.8822   -2.3653 H       1  WATER21111    0.0148
     32 ****       -2.7128   -2.1536   -1.2091 H       1  WATER21111    0.0195
     33 ****       -1.8896    1.4344   -1.5671 H       1  WATER21111    0.0214
     34 ****       -2.6749    3.3217   -0.4121 H       1  WATER21111    0.0207
     35 ****       -2.9876    2.4560    1.1056 H       1  WATER21111    0.0151
     36 ****       -5.1653    2.0863    0.2443 H       1  WATER21111    0.0372
     37 ****       -4.6686    2.5428   -1.4049 H       1  WATER21111    0.0399
     38 ****       -3.8886   -1.5487    0.9528 H       1  WATER21111    0.0083
     39 ****       -2.2677   -1.0683    1.5089 H       1  WATER21111   -0.0010
     40 ****       -3.6330    0.0516    1.6998 H       1  WATER21111   -0.0039
     41 ****        1.3270   -0.2737    1.8149 H       1  WATER21111   -0.0024
     42 ****        0.6528    3.0648   -2.0511 F       1  WATER21111   -0.1949
     43 ****        2.9059   -0.9189    1.3283 H       1  WATER21111   -0.0019
     44 ****        4.1303    2.2217   -0.9085 H       1  WATER21111    0.0805
     45 ****        5.6199    0.3368   -1.9041 O.2     1  WATER21111   -0.2769
     46 ****       -0.1957    2.8024    1.2359 H       1  WATER21111    0.0679
     47 C47         0.8048    3.2259   -0.7324 C.3     1  WATER21111    0.3291
     48 ****        0.8265    4.5479   -0.5060 F       1  WATER21111   -0.2010
@<TRIPOS>BOND
     1     1    22    1
     2     1    23    1
     3     1     2    1
     4     2     3    1
     5     3    45    2
     6     3     5    2
     7     5    44    1
     8     5     6    2
     9     6     7    1
    10     7     8    1
    11     8    47    1
    12    47    48    1
    13     7    47    1
    14    47    42    1
    15     8    46    1
    16     8     9    1
    17     9    27    1
    18     9    15    1
    19    15    33    1
    20    15    16    1
    21    16    34    1
    22    16    35    1
    23    16    17    1
    24    17    36    1
    25    17    37    1
    26    17    18    1
    27    18    21    2
    28    14    18    1
    29    14    19    1
    30    19    38    1
    31    19    40    1
    32    19    39    1
    33    13    14    1
    34    13    31    1
    35    13    32    1
    36    12    13    1
    37    12    29    1
    38    12    30    1
    39    10    12    1
    40     9    10    1
    41    10    28    1
    42    10    11    1
    43     1    11    1
    44     6    11    1
    45    11    20    1
    46    20    43    1
    47    20    41    1
    48    20    26    1
    49    14    15    1
    50     7     4    1
    51     2    25    1
    52     2    24    1
