@<TRIPOS>MOLECULE
30
 54 57 0 0 0
SMALL
GASTEIGER

@<TRIPOS>ATOM
      1 ****        2.3388   -1.2039   -1.4979 C.3     1  WATER21111    0.0085
      2 ****        3.8770   -1.2218   -1.4888 C.3     1  WATER21111   -0.0133
      3 C3          4.4826    0.1889   -1.5084 C.3     1  WATER21111    0.0193
      4 ****        1.7850    2.0621    1.4703 H       1  WATER21111    0.0096
      5 C5          3.6287    1.2177   -0.8263 C.2     1  WATER21111   -0.0651
      6 C5          2.3819    1.0343   -0.3268 C.2     1  WATER21111   -0.1286
      7 C6          1.6888    2.1899    0.3657 C.3     1  WATER21111    0.0362
      8 C7          0.2112    2.3598   -0.0124 C.3     1  WATER21111   -0.0009
      9 ****       -0.5896    1.0372    0.0236 C.3     1  WATER21111   -0.0146
     10 ****        0.1366   -0.0861   -0.8063 C.3     1  WATER21111   -0.0086
     11 ****        1.6533   -0.3302   -0.3841 C.3     1  WATER21111   -0.0031
     12 ****       -0.7306   -1.3743   -0.9396 C.3     1  WATER21111   -0.0022
     13 ****       -2.2291   -1.1727   -1.2701 C.3     1  WATER21111    0.0208
     14 ****       -2.9051   -0.1054   -0.3712 C.3     1  WATER21111   -0.1174
     15 ****       -2.0397    1.2050   -0.5079 C.3     1  WATER21111   -0.0268
     16 ****       -2.9673    2.3494   -0.0239 C.3     1  WATER21111   -0.0015
     17 ****       -4.3842    1.9259   -0.4766 C.3     1  WATER21111   -0.0518
     18 C18        -4.2948    0.4291   -0.8259 C.2     1  WATER21111    0.2327
     19 ****       -3.1128   -0.6566    1.0690 C.3     1  WATER21111    0.0548
     20 ****        1.8392   -0.9509    1.0637 C.3     1  WATER21111    0.2077
     21 ****        1.5287   -4.6188    1.8895 C.3     1  WATER21111    0.0469
     22 ****        2.0177   -0.8321   -2.4999 H       1  WATER21111    0.0039
     23 ****        1.9889   -2.2581   -1.4527 H       1  WATER21111    0.0179
     24 ****        4.2590   -1.7855   -0.6088 H       1  WATER21111    0.0092
     25 ****        4.2316   -1.7891   -2.3796 H       1  WATER21111    0.0082
     26 O26         1.6500   -2.3471    1.0795 O.3     1  WATER21111   -0.3441
     27 ****       -0.6459    0.7308    1.0947 H       1  WATER21111    0.0178
     28 ****        0.2053    0.3204   -1.8507 H       1  WATER21111    0.0101
     29 ****       -0.3146   -2.0069   -1.7566 H       1  WATER21111    0.0083
     30 ****       -0.6705   -1.9905   -0.0179 H       1  WATER21111    0.0119
     31 ****       -2.3372   -0.8936   -2.3429 H       1  WATER21111    0.0099
     32 ****       -2.7446   -2.1542   -1.1696 H       1  WATER21111    0.0160
     33 ****       -1.9266    1.4050   -1.6094 H       1  WATER21111    0.0111
     34 ****       -2.6856    3.3214   -0.4797 H       1  WATER21111    0.0154
     35 ****       -2.9259    2.4988    1.0749 H       1  WATER21111    0.0163
     36 ****       -5.1365    2.0946    0.3221 H       1  WATER21111    0.0356
     37 ****       -4.7165    2.5143   -1.3578 H       1  WATER21111    0.0358
     38 ****       -3.7906   -1.5354    1.0551 H       1  WATER21111    0.0050
     39 ****       -2.1702   -0.9849    1.5475 H       1  WATER21111    0.0012
     40 ****       -3.5662    0.0930    1.7488 H       1  WATER21111   -0.0051
     41 ****        1.1303   -0.4647    1.7808 H       1  WATER21111    0.0061
     42 ****        2.2071    3.1510    0.1400 H       1  WATER21111    0.0074
     43 ****        2.8716   -0.7087    1.4309 H       1  WATER21111    0.0072
     44 ****        4.1149    2.1969   -0.7585 H       1  WATER21111    0.0523
     45 ****        5.4874    0.1703   -1.0260 H       1  WATER21111    0.0129
     46 ****       -0.2422    3.0901    0.6960 H       1  WATER21111    0.0061
     47 ****        0.1481    2.8293   -1.0206 H       1  WATER21111    0.0092
     48 C47         1.7826   -3.1434    2.1771 C.2     1  WATER21111    0.3493
     49 ****        4.6558    0.5129   -2.5618 H       1  WATER21111    0.0128
     50 O50        -5.1766   -0.2189   -1.3638 O.2     1  WATER21111   -0.2735
     51 ****        2.0729   -2.6549    3.2660 O.2     1  WATER21111   -0.3559
     52 ****        1.8097   -5.2386    2.7642 H       1  WATER21111    0.0264
     53 ****        0.4538   -4.7878    1.6761 H       1  WATER21111    0.0260
     54 ****        2.1198   -4.9659    1.0188 H       1  WATER21111    0.0264
@<TRIPOS>BOND
     1     1    23    1
     2     1    11    1
     3    11    20    1
     4    20    43    1
     5    20    41    1
     6    20    26    1
     7    26    48    1
     8    48    51    2
     9    48    21    1
    10    21    54    1
    11    21    52    1
    12    21    53    1
    13    11     6    1
    14     5     6    2
    15     5    44    1
    16     3     5    1
    17     3    45    1
    18     3    49    1
    19     2     3    1
    20     2    24    1
    21     2    25    1
    22     1     2    1
    23     6     7    1
    24     7     4    1
    25     7    42    1
    26     7     8    1
    27     8    47    1
    28     8    46    1
    29     8     9    1
    30     9    10    1
    31    10    28    1
    32    11    10    1
    33    10    12    1
    34    12    30    1
    35    12    29    1
    36    12    13    1
    37    13    32    1
    38    13    14    1
    39    14    18    1
    40    18    50    2
    41    18    17    1
    42    17    37    1
    43    17    36    1
    44    16    17    1
    45    16    34    1
    46    16    35    1
    47    15    16    1
    48    15    33    1
    49    15    14    1
    50     9    15    1
    51    14    19    1
    52    19    38    1
    53    19    40    1
    54    19    39    1
    55    13    31    1
    56     9    27    1
    57     1    22    1
