@<TRIPOS>MOLECULE
39
 56 59 0 0 0
SMALL
GASTEIGER

@<TRIPOS>ATOM
      1 ****        2.3152   -1.1779   -1.5417 C.3     1  WATER21111    0.0039
      2 ****        3.8487   -1.2450   -1.5464 C.3     1  WATER21111   -0.0472
      3 C3          4.4946    0.1308   -1.4127 C.1     1  WATER21111    0.2545
      4 ****        1.6361    1.8665    1.4818 H       1  WATER21111    0.0160
      5 C5          3.6724    1.1981   -0.7706 C.1     1  WATER21111   -0.1367
      6 C5          2.3970    1.0685   -0.3235 C.2     1  WATER21111   -0.0321
      7 C6          1.6806    2.2072    0.4101 C.3     1  WATER21111   -0.0024
      8 C7          0.2175    2.3686   -0.0715 C.3     1  WATER21111    0.0095
      9 ****       -0.5886    1.0515   -0.0096 C.3     1  WATER21111   -0.0169
     10 ****        0.1322   -0.0638   -0.8451 C.3     1  WATER21111   -0.0106
     11 ****        1.6493   -0.2893   -0.4260 C.3     1  WATER21111   -0.0307
     12 ****       -0.7183   -1.3671   -0.9479 C.3     1  WATER21111   -0.0035
     13 ****       -2.2285   -1.1909   -1.2362 C.3     1  WATER21111    0.0219
     14 ****       -2.8968   -0.1116   -0.3458 C.3     1  WATER21111   -0.1174
     15 ****       -2.0467    1.2046   -0.5212 C.3     1  WATER21111   -0.0269
     16 ****       -2.9752    2.3498   -0.0416 C.3     1  WATER21111   -0.0015
     17 ****       -4.3956    1.9059   -0.4623 C.3     1  WATER21111   -0.0515
     18 ****       -4.2994    0.4035   -0.7851 C.2     1  WATER21111    0.2324
     19 ****       -3.0725   -0.6399    1.1073 C.3     1  WATER21111    0.0544
     20 ****        1.7992   -1.0100    0.9499 C.3     1  WATER21111    0.0465
     21 ****       -5.1847   -0.2619   -1.2950 O.2     1  WATER21111   -0.2714
     22 ****        1.9966   -0.8111   -2.5454 H       1  WATER21111    0.0103
     23 ****        1.9432   -2.2245   -1.4668 H       1  WATER21111    0.0121
     24 ****        4.2211   -1.8911   -0.7187 H       1  WATER21111    0.0310
     25 ****        4.1782   -1.7384   -2.4891 H       1  WATER21111    0.0351
     26 ****        1.5388   -2.0858    0.8887 H       1  WATER21111   -0.0005
     27 ****       -0.6297    0.7505    1.0639 H       1  WATER21111    0.0193
     28 ****        0.1829    0.3326   -1.8939 H       1  WATER21111    0.0113
     29 ****       -0.3188   -1.9962   -1.7762 H       1  WATER21111    0.0074
     30 ****       -0.6098   -1.9793   -0.0259 H       1  WATER21111    0.0075
     31 ****       -2.3693   -0.9385   -2.3118 H       1  WATER21111    0.0113
     32 ****       -2.7271   -2.1766   -1.0986 H       1  WATER21111    0.0179
     33 ****       -1.9533    1.3867   -1.6274 H       1  WATER21111    0.0119
     34 ****       -2.7084    3.3154   -0.5196 H       1  WATER21111    0.0161
     35 ****       -2.9165    2.5193    1.0535 H       1  WATER21111    0.0162
     36 ****       -5.1363    2.0835    0.3453 H       1  WATER21111    0.0363
     37 ****       -4.7474    2.4750   -1.3487 H       1  WATER21111    0.0368
     38 ****       -3.7567   -1.5137    1.1235 H       1  WATER21111    0.0063
     39 ****       -2.1201   -0.9694    1.5655 H       1  WATER21111    0.0002
     40 ****       -3.5025    0.1229    1.7874 H       1  WATER21111   -0.0048
     41 ****        1.1570   -0.5679    1.7364 H       1  WATER21111   -0.0015
     42 C42         2.3957    3.5884    0.5250 C.3     1  WATER21111    0.0047
     43 ****        2.8420   -0.9568    1.3254 H       1  WATER21111   -0.0027
     44 ****        4.2171    2.1409   -0.6740 H       1  WATER21111    0.0747
     45 ****        5.6392    0.3464   -1.8011 O.2     1  WATER21111   -0.2880
     46 ****       -0.2808    3.1269    0.5743 H       1  WATER21111    0.0078
     47 ****        0.1970    2.7757   -1.1069 H       1  WATER21111    0.0126
     48 ****        3.4160    3.4188    0.9383 H       1  WATER21111    0.0079
     49 C49         2.4773    4.4956   -0.7191 C.3     1  WATER21111   -0.0210
     50 ****        1.8614    4.1593    1.3230 H       1  WATER21111    0.0029
     51 C51         3.4779    5.6502   -0.5973 C.3     1  WATER21111    0.0286
     52 ****        2.7363    3.9035   -1.6252 H       1  WATER21111    0.0089
     53 ****        1.4717    4.9333   -0.9200 H       1  WATER21111    0.0035
     54 ****        3.4383    6.2847   -1.5067 H       1  WATER21111   -0.0038
     55 ****        3.2544    6.3005    0.2725 H       1  WATER21111   -0.0051
     56 ****        4.5194    5.2855   -0.4910 H       1  WATER21111   -0.0015
@<TRIPOS>BOND
     1     1    11    1
     2    11    20    1
     3    20    26    1
     4    20    43    1
     5    20    41    1
     6     6    11    1
     7     5     6    2
     8     5    44    1
     9     3     5    2
    10     2     3    1
    11     2    25    1
    12     1     2    1
    13     2    24    1
    14     3    45    2
    15     6     7    1
    16     7     8    1
    17     8    47    1
    18     8     9    1
    19     9    10    1
    20    10    11    1
    21    10    12    1
    22    12    29    1
    23    12    30    1
    24    12    13    1
    25    13    14    1
    26    14    19    1
    27    19    39    1
    28    19    40    1
    29    19    38    1
    30    14    15    1
    31     9    15    1
    32    15    33    1
    33    15    16    1
    34    16    35    1
    35    16    34    1
    36    16    17    1
    37    17    36    1
    38    17    37    1
    39    17    18    1
    40    14    18    1
    41    18    21    2
    42    13    32    1
    43    13    31    1
    44    10    28    1
    45     9    27    1
    46     8    46    1
    47     7     4    1
    48     7    42    1
    49    42    48    1
    50    42    50    1
    51    42    49    1
    52    49    51    1
    53    51    55    1
    54    51    54    1
    55    51    56    1
    56    49    52    1
    57    49    53    1
    58     1    23    1
    59     1    22    1
