@<TRIPOS>MOLECULE
40
 59 62 0 0 0
SMALL
GASTEIGER

@<TRIPOS>ATOM
      1 ****        2.3268   -1.1932   -1.5237 C.3     1  WATER21111    0.0034
      2 ****        3.8620   -1.2460   -1.5113 C.3     1  WATER21111   -0.0469
      3 C3          4.4915    0.1423   -1.4097 C.1     1  WATER21111    0.2543
      4 C4          2.0015    2.3724    1.8467 C.3     1  WATER21111    0.0050
      5 C5          3.6565    1.1992   -0.7684 C.1     1  WATER21111   -0.1359
      6 C5          2.3850    1.0399   -0.3137 C.2     1  WATER21111   -0.0389
      7 C6          1.7066    2.2593    0.3192 C.3     1  WATER21111   -0.0047
      8 C7          0.2089    2.3695   -0.0555 C.3     1  WATER21111    0.0105
      9 ****       -0.5858    1.0451   -0.0013 C.3     1  WATER21111   -0.0139
     10 ****        0.1324   -0.0655   -0.8474 C.3     1  WATER21111   -0.0102
     11 ****        1.6417   -0.3107   -0.4139 C.3     1  WATER21111   -0.0260
     12 ****       -0.7226   -1.3629   -0.9800 C.3     1  WATER21111   -0.0036
     13 ****       -2.2308   -1.1770   -1.2702 C.3     1  WATER21111    0.0219
     14 ****       -2.8978   -0.1148   -0.3588 C.3     1  WATER21111   -0.1173
     15 ****       -2.0462    1.2034   -0.5086 C.3     1  WATER21111   -0.0274
     16 ****       -2.9747    2.3395   -0.0073 C.3     1  WATER21111   -0.0016
     17 ****       -4.3953    1.9052   -0.4370 C.3     1  WATER21111   -0.0515
     18 ****       -4.2996    0.4096   -0.7894 C.2     1  WATER21111    0.2323
     19 ****       -3.0758   -0.6708    1.0835 C.3     1  WATER21111    0.0544
     20 ****        1.7694   -1.0465    0.9548 C.3     1  WATER21111    0.0477
     21 ****       -5.1846   -0.2452   -1.3134 O.2     1  WATER21111   -0.2714
     22 ****        2.0161   -0.8290   -2.5307 H       1  WATER21111    0.0101
     23 ****        1.9623   -2.2428   -1.4546 H       1  WATER21111    0.0121
     24 ****        4.2334   -1.8643   -0.6627 H       1  WATER21111    0.0309
     25 ****        4.2047   -1.7617   -2.4371 H       1  WATER21111    0.0349
     26 ****        1.5188   -2.1237    0.8736 H       1  WATER21111   -0.0010
     27 ****       -0.6250    0.7334    1.0685 H       1  WATER21111    0.0198
     28 ****        0.1969    0.3455   -1.8897 H       1  WATER21111    0.0111
     29 ****       -0.3203   -1.9755   -1.8194 H       1  WATER21111    0.0073
     30 ****       -0.6201   -1.9951   -0.0710 H       1  WATER21111    0.0075
     31 ****       -2.3667   -0.9014   -2.3408 H       1  WATER21111    0.0114
     32 ****       -2.7325   -2.1640   -1.1554 H       1  WATER21111    0.0180
     33 ****       -1.9533    1.4055   -1.6115 H       1  WATER21111    0.0117
     34 ****       -2.7081    3.3144   -0.4660 H       1  WATER21111    0.0161
     35 ****       -2.9166    2.4873    1.0911 H       1  WATER21111    0.0162
     36 ****       -5.1357    2.0668    0.3742 H       1  WATER21111    0.0363
     37 ****       -4.7470    2.4919   -1.3119 H       1  WATER21111    0.0368
     38 ****       -3.7611   -1.5438    1.0818 H       1  WATER21111    0.0063
     39 ****       -2.1244   -1.0098    1.5367 H       1  WATER21111    0.0003
     40 ****       -3.5062    0.0794    1.7773 H       1  WATER21111   -0.0048
     41 ****        1.1056   -0.6234    1.7330 H       1  WATER21111   -0.0012
     42 ****        2.1726    3.1619   -0.1588 H       1  WATER21111    0.0176
     43 ****        2.8037   -0.9910    1.3519 H       1  WATER21111   -0.0026
     44 ****        4.1595    2.1682   -0.6792 H       1  WATER21111    0.0747
     45 ****        5.6248    0.3727   -1.8207 O.2     1  WATER21111   -0.2870
     46 ****       -0.2777    3.1160    0.6110 H       1  WATER21111    0.0085
     47 ****        0.1491    2.8036   -1.0812 H       1  WATER21111    0.0078
     48 ****        2.9599    1.8503    2.0698 H       1  WATER21111    0.0075
     49 C49         2.1123    3.8160    2.3846 C.3     1  WATER21111   -0.0086
     50 ****        1.2193    1.8312    2.4237 H       1  WATER21111    0.0061
     51 C51         2.3834    3.8969    3.9003 C.3     1  WATER21111   -0.0219
     52 ****        2.9301    4.3448    1.8432 H       1  WATER21111    0.0073
     53 ****        1.1758    4.3738    2.1570 H       1  WATER21111    0.0047
     54 C54         2.4992    5.3204    4.4527 C.3     1  WATER21111    0.0292
     55 ****        1.5699    3.3712    4.4521 H       1  WATER21111    0.0043
     56 ****        3.3240    3.3488    4.1393 H       1  WATER21111    0.0065
     57 ****        2.7004    5.2915    5.5435 H       1  WATER21111   -0.0049
     58 ****        3.3272    5.8830    3.9761 H       1  WATER21111   -0.0036
     59 ****        1.5649    5.8983    4.3019 H       1  WATER21111   -0.0053
@<TRIPOS>BOND
     1     1    22    1
     2     1     2    1
     3     2    24    1
     4     2     3    1
     5     3     5    2
     6     5    44    1
     7     5     6    2
     8     6    11    1
     9    11    20    1
    10    20    41    1
    11    20    26    1
    12    20    43    1
    13    10    11    1
    14    10    28    1
    15     9    10    1
    16     8     9    1
    17     8    46    1
    18     7     8    1
    19     6     7    1
    20     7     4    1
    21     4    49    1
    22    49    53    1
    23    49    51    1
    24    51    55    1
    25    51    56    1
    26    51    54    1
    27    54    58    1
    28    54    59    1
    29    54    57    1
    30    49    52    1
    31     4    50    1
    32     4    48    1
    33     7    42    1
    34     8    47    1
    35     9    27    1
    36     9    15    1
    37    15    33    1
    38    15    16    1
    39    16    34    1
    40    16    35    1
    41    16    17    1
    42    17    36    1
    43    17    18    1
    44    18    21    2
    45    14    18    1
    46    13    14    1
    47    13    32    1
    48    13    31    1
    49    12    13    1
    50    12    30    1
    51    12    29    1
    52    10    12    1
    53    14    19    1
    54    19    40    1
    55    19    38    1
    56    19    39    1
    57    14    15    1
    58    17    37    1
    59     1    11    1
    60     3    45    2
    61     2    25    1
    62     1    23    1
