@<TRIPOS>MOLECULE
42
 56 59 0 0 0
SMALL
GASTEIGER

@<TRIPOS>ATOM
      1 ****        2.3270   -1.1951   -1.5188 C.3     1  WATER21111    0.0032
      2 ****        3.8626   -1.2468   -1.5093 C.3     1  WATER21111   -0.0466
      3 C3          4.4895    0.1432   -1.4124 C.1     1  WATER21111    0.2541
      4 C4          1.9701    2.4006    1.8835 C.3     1  WATER21111   -0.0522
      5 C5          3.6548    1.1997   -0.7700 C.1     1  WATER21111   -0.1351
      6 C5          2.3843    1.0398   -0.3130 C.2     1  WATER21111   -0.0395
      7 C6          1.7060    2.2589    0.3198 C.3     1  WATER21111    0.0098
      8 C7          0.2083    2.3702   -0.0547 C.3     1  WATER21111    0.0079
      9 ****       -0.5858    1.0453   -0.0025 C.3     1  WATER21111   -0.0138
     10 ****        0.1329   -0.0652   -0.8482 C.3     1  WATER21111   -0.0102
     11 ****        1.6412   -0.3109   -0.4115 C.3     1  WATER21111   -0.0256
     12 ****       -0.7222   -1.3623   -0.9842 C.3     1  WATER21111   -0.0035
     13 ****       -2.2306   -1.1759   -1.2733 C.3     1  WATER21111    0.0219
     14 ****       -2.8965   -0.1151   -0.3595 C.3     1  WATER21111   -0.1173
     15 ****       -2.0456    1.2032   -0.5106 C.3     1  WATER21111   -0.0275
     16 ****       -2.9730    2.3401   -0.0093 C.3     1  WATER21111   -0.0016
     17 ****       -4.3947    1.9046   -0.4336 C.3     1  WATER21111   -0.0515
     18 ****       -4.2997    0.4089   -0.7859 C.2     1  WATER21111    0.2324
     19 ****       -3.0703   -0.6721    1.0830 C.3     1  WATER21111    0.0545
     20 ****        1.7665   -1.0444    0.9585 C.3     1  WATER21111    0.0476
     21 ****       -5.1865   -0.2462   -1.3066 O.2     1  WATER21111   -0.2715
     22 ****        2.0150   -0.8340   -2.5266 H       1  WATER21111    0.0100
     23 ****        1.9644   -2.2451   -1.4469 H       1  WATER21111    0.0121
     24 ****        4.2367   -1.8620   -0.6595 H       1  WATER21111    0.0309
     25 ****        4.2042   -1.7643   -2.4344 H       1  WATER21111    0.0350
     26 ****        1.5097   -2.1204    0.8801 H       1  WATER21111   -0.0010
     27 ****       -0.6256    0.7336    1.0673 H       1  WATER21111    0.0198
     28 ****        0.1996    0.3465   -1.8901 H       1  WATER21111    0.0110
     29 ****       -0.3204   -1.9719   -1.8260 H       1  WATER21111    0.0073
     30 ****       -0.6194   -1.9975   -0.0773 H       1  WATER21111    0.0075
     31 ****       -2.3666   -0.8981   -2.3434 H       1  WATER21111    0.0113
     32 ****       -2.7327   -2.1629   -1.1606 H       1  WATER21111    0.0180
     33 ****       -1.9527    1.4044   -1.6136 H       1  WATER21111    0.0118
     34 ****       -2.7073    3.3138   -0.4713 H       1  WATER21111    0.0161
     35 ****       -2.9111    2.4909    1.0884 H       1  WATER21111    0.0162
     36 ****       -5.1320    2.0661    0.3804 H       1  WATER21111    0.0362
     37 ****       -4.7502    2.4909   -1.3072 H       1  WATER21111    0.0368
     38 ****       -3.7461   -1.5525    1.0810 H       1  WATER21111    0.0063
     39 ****       -2.1158   -1.0006    1.5376 H       1  WATER21111    0.0003
     40 ****       -3.5094    0.0740    1.7758 H       1  WATER21111   -0.0048
     41 ****        1.1058   -0.6156    1.7361 H       1  WATER21111   -0.0012
     42 ****        2.1706    3.1627   -0.1549 H       1  WATER21111    0.0164
     43 ****        2.8017   -0.9936    1.3541 H       1  WATER21111   -0.0022
     44 ****        4.1561    2.1698   -0.6828 H       1  WATER21111    0.0748
     45 ****        5.6207    0.3752   -1.8282 O.2     1  WATER21111   -0.2869
     46 ****       -0.2779    3.1155    0.6136 H       1  WATER21111    0.0095
     47 ****        0.1485    2.8064   -1.0795 H       1  WATER21111    0.0083
     48 C48         3.3727    2.0031    2.3866 C.3     1  WATER21111    0.0394
     49 C49         1.6621    3.8341    2.3880 C.3     1  WATER21111    0.0348
     50 ****        1.2287    1.7297    2.3823 H       1  WATER21111    0.0125
     51 ****        1.9691    3.9601    3.4471 H       1  WATER21111   -0.0036
     52 ****        2.2069    4.6056    1.8060 H       1  WATER21111   -0.0031
     53 ****        0.5821    4.0743    2.3400 H       1  WATER21111   -0.0057
     54 ****        3.5904    0.9298    2.2244 H       1  WATER21111   -0.0075
     55 ****        4.1762    2.5627    1.8654 H       1  WATER21111   -0.0011
     56 ****        3.4740    2.1864    3.4756 H       1  WATER21111   -0.0005
@<TRIPOS>BOND
     1     1     2    1
     2     2    24    1
     3     2     3    1
     4     3     5    2
     5     5     6    2
     6     6    11    1
     7    11    20    1
     8    20    26    1
     9    20    41    1
    10    20    43    1
    11     1    11    1
    12    10    11    1
    13     9    10    1
    14     9    15    1
    15    15    16    1
    16    16    17    1
    17    17    18    1
    18    18    21    2
    19    14    18    1
    20    13    14    1
    21    13    31    1
    22    12    13    1
    23    12    29    1
    24    12    30    1
    25    10    12    1
    26    13    32    1
    27    14    15    1
    28    14    19    1
    29    19    40    1
    30    19    38    1
    31    19    39    1
    32    17    36    1
    33    17    37    1
    34    16    34    1
    35    16    35    1
    36    15    33    1
    37     9    27    1
    38     8     9    1
    39     8    47    1
    40     8    46    1
    41     7     8    1
    42     6     7    1
    43     7     4    1
    44     4    49    1
    45    49    53    1
    46    49    52    1
    47    49    51    1
    48     4    48    1
    49    48    56    1
    50    48    54    1
    51    48    55    1
    52     4    50    1
    53     7    42    1
    54    10    28    1
    55     5    44    1
    56     3    45    2
    57     2    25    1
    58     1    22    1
    59     1    23    1
