@<TRIPOS>MOLECULE
53
 47 50 0 0 0
SMALL
GASTEIGER

@<TRIPOS>ATOM
      1 ****        2.3315   -1.2403   -1.4299 C.3     1  WATER21111    0.0044
      2 ****        3.8658   -1.2572   -1.4356 C.3     1  WATER21111   -0.0429
      3 C3          4.4752    0.1436   -1.4501 C.1     1  WATER21111    0.2455
      4 C5          3.6311    1.2734   -0.9217 C.1     1  WATER21111   -0.0906
      5 C5          2.3569    1.1086   -0.4405 C.1     1  WATER21111    0.0306
      6 C6          1.5678    2.2485    0.0720 C.1     1  WATER21111   -0.0479
      7 C7          0.2365    2.2128    0.2919 C.2     1  WATER21111   -0.0782
      8 ****       -0.6023    0.9724    0.1235 C.3     1  WATER21111    0.0167
      9 ****        0.1356   -0.0766   -0.7886 C.3     1  WATER21111   -0.0140
     10 ****        1.6622   -0.2765   -0.3914 C.3     1  WATER21111   -0.0379
     11 ****       -0.7091   -1.3732   -0.9558 C.3     1  WATER21111   -0.0025
     12 ****       -2.2010   -1.1562   -1.3134 C.3     1  WATER21111    0.0216
     13 ****       -2.9025   -0.1029   -0.4148 C.3     1  WATER21111   -0.1185
     14 ****       -2.0205    1.2054   -0.4587 C.3     1  WATER21111   -0.0248
     15 ****       -2.9526    2.3388    0.0376 C.3     1  WATER21111   -0.0011
     16 ****       -4.3538    1.9505   -0.4904 C.3     1  WATER21111   -0.0514
     17 ****       -4.2621    0.4716   -0.9111 C.2     1  WATER21111    0.2324
     18 ****       -3.1851   -0.7058    0.9923 C.3     1  WATER21111    0.0536
     19 ****        1.8459   -0.8572    1.0432 C.3     1  WATER21111    0.0482
     20 ****       -5.1210   -0.1370   -1.5262 O.2     1  WATER21111   -0.2714
     21 ****        1.9945   -0.9734   -2.4586 H       1  WATER21111    0.0116
     22 ****        1.9909   -2.2861   -1.2569 H       1  WATER21111    0.0137
     23 ****        4.2634   -1.8040   -0.5503 H       1  WATER21111    0.0332
     24 ****        4.2084   -1.8326   -2.3261 H       1  WATER21111    0.0362
     25 ****        1.4474   -1.8880    1.1261 H       1  WATER21111   -0.0004
     26 ****       -0.7131    0.5598    1.1577 H       1  WATER21111    0.0231
     27 ****        0.1763    0.3774   -1.8146 H       1  WATER21111    0.0130
     28 ****       -0.2817   -1.9911   -1.7781 H       1  WATER21111    0.0075
     29 ****       -0.6448   -2.0039   -0.0422 H       1  WATER21111    0.0084
     30 ****       -2.2781   -0.8554   -2.3830 H       1  WATER21111    0.0118
     31 ****       -2.7222   -2.1373   -1.2455 H       1  WATER21111    0.0178
     32 ****       -1.8558    1.4581   -1.5422 H       1  WATER21111    0.0139
     33 ****       -2.6399    3.3248   -0.3650 H       1  WATER21111    0.0172
     34 ****       -2.9539    2.4417    1.1424 H       1  WATER21111    0.0163
     35 ****       -5.1352    2.0847    0.2866 H       1  WATER21111    0.0362
     36 ****       -4.6482    2.5860   -1.3521 H       1  WATER21111    0.0371
     37 ****       -3.9001   -1.5513    0.9159 H       1  WATER21111    0.0062
     38 ****       -2.2746   -1.0994    1.4844 H       1  WATER21111    0.0003
     39 ****       -3.6279    0.0324    1.6909 H       1  WATER21111   -0.0043
     40 ****        1.3422   -0.2478    1.8187 H       1  WATER21111    0.0013
     41 ****        2.1011    3.1790    0.2861 H       1  WATER21111    0.0821
     42 ****        2.9163   -0.8996    1.3313 H       1  WATER21111   -0.0031
     43 N44         4.1950    2.5992   -0.9249 N.2     1  WATER21111   -0.2315
     44 ****        5.6138    0.3297   -1.8727 O.2     1  WATER21111   -0.2991
     45 ****       -0.2699    3.1030    0.6707 H       1  WATER21111    0.0599
     46 ****        4.3709    2.8879   -1.8774 H       1  WATER21111    0.1094
     47 ****        5.0958    2.5914   -0.4677 H       1  WATER21111    0.1107
@<TRIPOS>BOND
     1     1    21    1
     2     1    22    1
     3     1     2    1
     4     2    23    1
     5     2    24    1
     6     2     3    1
     7     3     4    2
     8     4     5    2
     9     5     6    2
    10     6     7    2
    11     7    45    1
    12     7     8    1
    13     8    26    1
    14     8     9    1
    15     9    27    1
    16     9    11    1
    17    11    28    1
    18    11    29    1
    19    11    12    1
    20    12    13    1
    21    13    17    1
    22    17    20    2
    23    16    17    1
    24    16    36    1
    25    16    35    1
    26    15    16    1
    27    15    34    1
    28    14    15    1
    29    13    14    1
    30    14    32    1
    31     8    14    1
    32    15    33    1
    33    13    18    1
    34    18    38    1
    35    18    39    1
    36    18    37    1
    37    12    31    1
    38    12    30    1
    39     9    10    1
    40     1    10    1
    41    10    19    1
    42    19    42    1
    43    19    25    1
    44    19    40    1
    45     5    10    1
    46     6    41    1
    47     4    43    2
    48    43    47    1
    49    43    46    1
    50     3    44    2
