@<TRIPOS>MOLECULE
58
 58 62 0 0 0
SMALL
GASTEIGER

@<TRIPOS>ATOM
      1 ****        2.3366   -1.2219   -1.5031 C.3     1  WATER21111    0.0051
      2 ****        3.8734   -1.2179   -1.5320 C.3     1  WATER21111   -0.0461
      3 C3          4.4649    0.1896   -1.4665 C.1     1  WATER21111    0.2546
      4 ****        1.6450    1.9153    1.5215 H       1  WATER21111    0.0177
      5 C5          3.6425    1.2158   -0.7624 C.1     1  WATER21111   -0.1244
      6 C5          2.3860    1.0158   -0.2922 C.2     1  WATER21111   -0.0494
      7 C6          1.6788    2.1454    0.4297 C.3     1  WATER21111    0.0327
      8 C7          0.2444    2.4061   -0.0801 C.3     1  WATER21111   -0.1069
      9 ****       -0.5784    1.0813   -0.0568 C.3     1  WATER21111    0.0119
     10 ****        0.1384   -0.0675   -0.8600 C.3     1  WATER21111   -0.0123
     11 ****        1.6431   -0.3305   -0.4082 C.3     1  WATER21111   -0.0271
     12 ****       -0.7237   -1.3640   -0.9565 C.3     1  WATER21111   -0.0034
     13 ****       -2.2336   -1.1849   -1.2368 C.3     1  WATER21111    0.0214
     14 ****       -2.8878   -0.1023   -0.3413 C.3     1  WATER21111   -0.1181
     15 ****       -2.0467    1.2172   -0.5471 C.3     1  WATER21111   -0.0288
     16 ****       -2.9762    2.3579   -0.0571 C.3     1  WATER21111   -0.0009
     17 ****       -4.4016    1.9030   -0.4473 C.3     1  WATER21111   -0.0508
     18 ****       -4.3017    0.3995   -0.7594 C.2     1  WATER21111    0.2334
     19 ****       -3.0370   -0.6192    1.1189 C.3     1  WATER21111    0.0539
     20 ****        1.7576   -1.0475    0.9724 C.3     1  WATER21111    0.0469
     21 ****       -5.1916   -0.2768   -1.2465 O.2     1  WATER21111   -0.2718
     22 ****        1.9907   -0.9040   -2.5143 H       1  WATER21111    0.0130
     23 ****        2.0120   -2.2811   -1.3914 H       1  WATER21111    0.0117
     24 ****        4.2871   -1.8088   -0.6829 H       1  WATER21111    0.0293
     25 ****        4.2084   -1.7388   -2.4575 H       1  WATER21111    0.0353
     26 ****        1.4732   -2.1172    0.9148 H       1  WATER21111    0.0004
     27 ****       -0.6157    0.7960    1.0232 H       1  WATER21111    0.0160
     28 ****        0.2145    0.3059   -1.9142 H       1  WATER21111    0.0234
     29 ****       -0.3270   -1.9947   -1.7853 H       1  WATER21111    0.0083
     30 ****       -0.6158   -1.9780   -0.0356 H       1  WATER21111    0.0060
     31 ****       -2.3807   -0.9330   -2.3117 H       1  WATER21111    0.0138
     32 ****       -2.7353   -2.1685   -1.0945 H       1  WATER21111    0.0177
     33 ****       -1.9786    1.3818   -1.6567 H       1  WATER21111    0.0259
     34 ****       -2.7319    3.3235   -0.5451 H       1  WATER21111    0.0201
     35 ****       -2.8977    2.5334    1.0361 H       1  WATER21111    0.0118
     36 ****       -5.1277    2.0834    0.3728 H       1  WATER21111    0.0350
     37 ****       -4.7728    2.4629   -1.3316 H       1  WATER21111    0.0384
     38 ****       -3.7090   -1.5019    1.1522 H       1  WATER21111    0.0065
     39 ****       -2.0749   -0.9315    1.5688 H       1  WATER21111   -0.0008
     40 ****       -3.4690    0.1441    1.7973 H       1  WATER21111   -0.0052
     41 ****        1.1169   -0.5846    1.7482 H       1  WATER21111   -0.0030
     42 ****        2.2662    3.0891    0.3659 H       1  WATER21111    0.0159
     43 ****        2.7973   -1.0156    1.3587 H       1  WATER21111   -0.0031
     44 ****        4.1337    2.1866   -0.6412 H       1  WATER21111    0.0749
     45 ****        5.5603    0.4575   -1.9507 O.2     1  WATER21111   -0.2869
     46 ****       -0.2282    3.1036    0.6519 H       1  WATER21111    0.0236
     47 S47         0.2107    3.1765   -1.6546 S.3     1  WATER21111    0.1198
     48 ****        0.7706    4.7710   -1.5245 C.ar    2  <2>222     -0.2108
     49 ****        1.9296    5.1413   -2.2454 C.ar    2  <2>222     -0.0070
     50 ****        2.3788    6.4735   -2.2448 C.ar    2  <2>222     -0.0698
     51 ****        1.6790    7.4544   -1.5208 C.ar    2  <2>222     -0.0336
     52 ****        0.5233    7.0985   -0.8040 C.ar    2  <2>222     -0.0699
     53 ****        0.0690    5.7684   -0.8111 C.ar    2  <2>222     -0.0218
     54 ****        2.4851    4.3932   -2.8138 H       2  <2>222      0.0717
     55 ****        3.2724    6.7446   -2.8079 H       2  <2>222      0.0667
     56 ****        2.0293    8.4870   -1.5168 H       2  <2>222      0.0640
     57 ****       -0.0264    7.8559   -0.2443 H       2  <2>222      0.0641
     58 ****       -0.8401    5.5210   -0.2613 H       2  <2>222      0.0611
@<TRIPOS>BOND
     1     1    23    1
     2     1    22    1
     3     1    11    1
     4    11    20    1
     5    20    43    1
     6    20    41    1
     7    20    26    1
     8    10    11    1
     9    10    28    1
    10    10    12    1
    11    12    30    1
    12    12    29    1
    13    12    13    1
    14    13    32    1
    15    13    31    1
    16    13    14    1
    17    14    19    1
    18    19    40    1
    19    19    39    1
    20    19    38    1
    21    14    18    1
    22    18    21    2
    23    17    18    1
    24    17    37    1
    25    17    36    1
    26    16    17    1
    27    16    35    1
    28    16    34    1
    29    15    16    1
    30    15    33    1
    31    14    15    1
    32     9    15    1
    33     9    27    1
    34     9    10    1
    35     8     9    1
    36     8    47    1
    37    47    48    1
    38    53    48   ar
    39    53    58    1
    40    52    53   ar
    41    51    52   ar
    42    51    56    1
    43    50    51   ar
    44    50    55    1
    45    49    50   ar
    46    49    54    1
    47    48    49   ar
    48    52    57    1
    49     8    46    1
    50     7     8    1
    51     7    42    1
    52     6     7    1
    53     6    11    1
    54     5     6    2
    55     5    44    1
    56     3     5    2
    57     3    45    2
    58     2     3    1
    59     2    25    1
    60     2    24    1
    61     1     2    1
    62     7     4    1
