@<TRIPOS>MOLECULE
60
 58 62 0 0 0
SMALL
GASTEIGER

@<TRIPOS>ATOM
      1 C1          2.3952   -1.3148   -1.2006 C.2     1  WATER21111   -0.0324
      2 C2          3.6092   -1.1071   -1.7476 C.1     1  WATER21111   -0.1375
      3 C3          4.3244    0.1935   -1.6145 C.1     1  WATER21111    0.2878
      4 ****        1.6596    1.9149    1.5931 H       1  WATER21111    0.0169
      5 C5          3.5957    1.2288   -0.8224 C.1     1  WATER21111   -0.1139
      6 C5          2.3918    1.0184   -0.2342 C.2     1  WATER21111   -0.0618
      7 C6          1.6984    2.1452    0.5024 C.3     1  WATER21111    0.0353
      8 C7          0.2657    2.4053   -0.0200 C.3     1  WATER21111   -0.1082
      9 ****       -0.5551    1.0772   -0.0373 C.3     1  WATER21111    0.0120
     10 ****        0.1847   -0.0739   -0.8202 C.3     1  WATER21111   -0.0073
     11 ****        1.6570   -0.3377   -0.2810 C.3     1  WATER21111   -0.0013
     12 ****       -0.6781   -1.3640   -0.9672 C.3     1  WATER21111   -0.0040
     13 ****       -2.1827   -1.1825   -1.2718 C.3     1  WATER21111    0.0219
     14 ****       -2.8552   -0.1063   -0.3830 C.3     1  WATER21111   -0.1185
     15 ****       -2.0104    1.2145   -0.5633 C.3     1  WATER21111   -0.0281
     16 ****       -2.9517    2.3515   -0.0865 C.3     1  WATER21111   -0.0008
     17 ****       -4.3698    1.8971   -0.5022 C.3     1  WATER21111   -0.0510
     18 ****       -4.2606    0.3974   -0.8277 C.2     1  WATER21111    0.2335
     19 ****       -3.0352   -0.6332    1.0699 C.3     1  WATER21111    0.0538
     20 ****        1.7276   -0.9873    1.1389 C.3     1  WATER21111    0.0497
     21 ****       -5.1382   -0.2747   -1.3420 O.2     1  WATER21111   -0.2717
     22 ****        1.9133   -2.2833   -1.3607 H       1  WATER21111    0.0597
     23 ****        4.0941   -1.8857   -2.3407 H       1  WATER21111    0.0803
     24 ****        1.3834   -2.0410    1.1307 H       1  WATER21111    0.0003
     25 ****       -0.6249    0.7849    1.0395 H       1  WATER21111    0.0149
     26 ****        0.3277    0.2958   -1.8683 H       1  WATER21111    0.0259
     27 ****       -0.2652   -1.9696   -1.8073 H       1  WATER21111    0.0078
     28 ****       -0.5859   -2.0024   -0.0611 H       1  WATER21111    0.0059
     29 ****       -2.3110   -0.9239   -2.3476 H       1  WATER21111    0.0141
     30 ****       -2.6853   -2.1675   -1.1444 H       1  WATER21111    0.0178
     31 ****       -1.9159    1.3850   -1.6699 H       1  WATER21111    0.0263
     32 ****       -2.7005    3.3183   -0.5681 H       1  WATER21111    0.0196
     33 ****       -2.8926    2.5245    1.0083 H       1  WATER21111    0.0122
     34 ****       -5.1081    2.0659    0.3096 H       1  WATER21111    0.0350
     35 ****       -4.7309    2.4655   -1.3852 H       1  WATER21111    0.0383
     36 ****       -3.7233   -1.5040    1.0854 H       1  WATER21111    0.0065
     37 ****       -2.0855   -0.9670    1.5309 H       1  WATER21111   -0.0009
     38 ****       -3.4632    0.1319    1.7488 H       1  WATER21111   -0.0049
     39 ****        1.1140   -0.4545    1.8903 H       1  WATER21111   -0.0009
     40 ****        2.2903    3.0860    0.4434 H       1  WATER21111    0.0175
     41 ****        2.7716   -0.9929    1.5155 H       1  WATER21111    0.0015
     42 ****        4.0955    2.1990   -0.7516 H       1  WATER21111    0.0766
     43 ****        5.4242    0.4030   -2.1193 O.2     1  WATER21111   -0.2906
     44 ****       -0.2201    3.0826    0.7224 H       1  WATER21111    0.0237
     45 S47         0.2535    3.2166   -1.5750 S.3     1  WATER21111    0.1210
     46 ****        0.7098    4.8343   -1.3645 C.ar    2  <2>222     -0.2453
     47 ****        1.9329    5.2851   -1.9115 C.ar    2  <2>222      0.0218
     48 ****        2.3094    6.6342   -1.8369 C.ar    2  <2>222     -0.1090
     49 ****        1.4623    7.5792   -1.2015 C.ar    2  <2>222      0.0747
     50 ****        0.2270    7.1348   -0.6630 C.ar    2  <2>222     -0.1119
     51 ****       -0.1365    5.7831   -0.7501 C.ar    2  <2>222      0.0104
     52 ****        2.6027    4.5800   -2.4080 H       2  <2>222      0.0703
     53 ****        3.2635    6.9384   -2.2699 H       2  <2>222      0.0693
     54 N56         1.8960    8.9156   -1.0086 N.pl3   2  <2>222     -0.2343
     55 ****       -0.4562    7.8315   -0.1751 H       2  <2>222      0.0663
     56 ****       -1.0980    5.4770   -0.3343 H       2  <2>222      0.0605
     57 ****        2.4744    9.2434   -1.7645 H       2  <2>222      0.1234
     58 ****        1.1278    9.5603   -0.9239 H       2  <2>222      0.1219
@<TRIPOS>BOND
     1     1    22    1
     2     1     2    2
     3     2     3    2
     4     3    43    2
     5     3     5    2
     6     5    42    1
     7     5     6    2
     8     6    11    1
     9    11    20    1
    10    20    41    1
    11    20    39    1
    12    20    24    1
    13     1    11    1
    14    10    11    1
    15     9    10    1
    16     9    25    1
    17     8     9    1
    18     8    44    1
    19     8    45    1
    20    45    46    1
    21    51    46   ar
    22    51    56    1
    23    50    51   ar
    24    49    50   ar
    25    49    54    1
    26    54    58    1
    27    54    57    1
    28    48    49   ar
    29    48    53    1
    30    47    48   ar
    31    47    52    1
    32    46    47   ar
    33    50    55    1
    34     7     8    1
    35     7    40    1
    36     6     7    1
    37     7     4    1
    38     9    15    1
    39    15    31    1
    40    14    15    1
    41    14    18    1
    42    18    21    2
    43    17    18    1
    44    17    35    1
    45    17    34    1
    46    16    17    1
    47    16    33    1
    48    16    32    1
    49    15    16    1
    50    14    19    1
    51    19    36    1
    52    19    37    1
    53    19    38    1
    54    13    14    1
    55    13    29    1
    56    13    30    1
    57    12    13    1
    58    12    27    1
    59    12    28    1
    60    10    12    1
    61    10    26    1
    62     2    23    1
