@<TRIPOS>MOLECULE
62
 58 62 0 0 0
SMALL
GASTEIGER

@<TRIPOS>ATOM
      1 ****        2.3356   -1.2237   -1.4982 C.3     1  WATER21111    0.0048
      2 ****        3.8722   -1.2180   -1.5352 C.3     1  WATER21111   -0.0459
      3 C3          4.4590    0.1921   -1.4800 C.1     1  WATER21111    0.2538
      4 ****        1.6504    1.9124    1.5263 H       1  WATER21111    0.0196
      5 C5          3.6392    1.2180   -0.7710 C.1     1  WATER21111   -0.1221
      6 C5          2.3864    1.0161   -0.2920 C.2     1  WATER21111   -0.0522
      7 C6          1.6813    2.1438    0.4347 C.3     1  WATER21111    0.0326
      8 C7          0.2445    2.4045   -0.0693 C.3     1  WATER21111   -0.1063
      9 ****       -0.5789    1.0800   -0.0508 C.3     1  WATER21111    0.0116
     10 ****        0.1394   -0.0684   -0.8536 C.3     1  WATER21111   -0.0124
     11 ****        1.6446   -0.3307   -0.4033 C.3     1  WATER21111   -0.0270
     12 ****       -0.7222   -1.3650   -0.9487 C.3     1  WATER21111   -0.0036
     13 ****       -2.2304   -1.1851   -1.2368 C.3     1  WATER21111    0.0210
     14 ****       -2.8886   -0.1019   -0.3447 C.3     1  WATER21111   -0.1177
     15 ****       -2.0460    1.2174   -0.5454 C.3     1  WATER21111   -0.0295
     16 ****       -2.9770    2.3578   -0.0571 C.3     1  WATER21111   -0.0011
     17 ****       -4.4006    1.9046   -0.4561 C.3     1  WATER21111   -0.0506
     18 ****       -4.3001    0.4012   -0.7694 C.2     1  WATER21111    0.2332
     19 ****       -3.0453   -0.6196    1.1144 C.3     1  WATER21111    0.0536
     20 ****        1.7617   -1.0461    0.9779 C.3     1  WATER21111    0.0467
     21 ****       -5.1879   -0.2742   -1.2614 O.2     1  WATER21111   -0.2705
     22 ****        1.9852   -0.9090   -2.5089 H       1  WATER21111    0.0127
     23 ****        2.0128   -2.2829   -1.3824 H       1  WATER21111    0.0122
     24 ****        4.2916   -1.8028   -0.6847 H       1  WATER21111    0.0299
     25 ****        4.2036   -1.7427   -2.4598 H       1  WATER21111    0.0360
     26 ****        1.4825   -2.1173    0.9208 H       1  WATER21111    0.0010
     27 ****       -0.6194    0.7940    1.0288 H       1  WATER21111    0.0175
     28 ****        0.2148    0.3051   -1.9078 H       1  WATER21111    0.0227
     29 ****       -0.3224   -1.9995   -1.7730 H       1  WATER21111    0.0090
     30 ****       -0.6190   -1.9744   -0.0242 H       1  WATER21111    0.0066
     31 ****       -2.3719   -0.9336   -2.3125 H       1  WATER21111    0.0139
     32 ****       -2.7327   -2.1686   -1.0972 H       1  WATER21111    0.0185
     33 ****       -1.9745    1.3840   -1.6545 H       1  WATER21111    0.0253
     34 ****       -2.7288    3.3248   -0.5405 H       1  WATER21111    0.0193
     35 ****       -2.9047    2.5297    1.0370 H       1  WATER21111    0.0121
     36 ****       -5.1306    2.0846    0.3606 H       1  WATER21111    0.0357
     37 ****       -4.7664    2.4658   -1.3418 H       1  WATER21111    0.0388
     38 ****       -3.7070   -1.5103    1.1416 H       1  WATER21111    0.0072
     39 ****       -2.0836   -0.9191    1.5738 H       1  WATER21111   -0.0008
     40 ****       -3.4937    0.1383    1.7884 H       1  WATER21111   -0.0050
     41 ****        1.1181   -0.5855    1.7526 H       1  WATER21111   -0.0031
     42 ****        2.2679    3.0880    0.3697 H       1  WATER21111    0.0153
     43 ****        2.8011   -1.0091    1.3647 H       1  WATER21111   -0.0025
     44 ****        4.1292    2.1899   -0.6542 H       1  WATER21111    0.0750
     45 ****        5.5477    0.4636   -1.9766 O.2     1  WATER21111   -0.2850
     46 ****       -0.2278    3.0980    0.6664 H       1  WATER21111    0.0243
     47 S47         0.2101    3.1795   -1.6416 S.3     1  WATER21111    0.1255
     48 ****        0.7727    4.7730   -1.5186 C.ar    2  <2>222     -0.1786
     49 ****        1.8473    5.1667   -2.3480 C.ar    2  <2>222     -0.0223
     50 ****        2.2983    6.4981   -2.3571 C.ar    2  <2>222     -0.0141
     51 ****        1.6941    7.4724   -1.5375 C.ar    2  <2>222     -0.2518
     52 ****        0.6195    7.0811   -0.7142 C.ar    2  <2>222     -0.0138
     53 ****        0.1608    5.7527   -0.7073 C.ar    2  <2>222     -0.0402
     54 ****        2.3384    4.4376   -2.9952 H       2  <2>222      0.0774
     55 ****        3.1298    6.7684   -3.0108 H       2  <2>222      0.0741
     56 I56         2.3341    9.3419   -1.5445 I       2  <2>222      0.1321
     57 ****        0.1252    7.8115   -0.0710 H       2  <2>222      0.0714
     58 ****       -0.6845    5.4973   -0.0670 H       2  <2>222      0.0657
@<TRIPOS>BOND
     1     1    23    1
     2     1    22    1
     3     1    11    1
     4    11    20    1
     5    20    43    1
     6    20    41    1
     7    20    26    1
     8    10    11    1
     9    10    28    1
    10    10    12    1
    11    12    30    1
    12    12    29    1
    13    12    13    1
    14    13    32    1
    15    13    31    1
    16    13    14    1
    17    14    19    1
    18    19    40    1
    19    19    39    1
    20    19    38    1
    21    14    15    1
    22    15    33    1
    23    15    16    1
    24    16    35    1
    25    16    34    1
    26    16    17    1
    27    17    37    1
    28    17    36    1
    29    17    18    1
    30    18    21    2
    31    14    18    1
    32     9    15    1
    33     9    27    1
    34     9    10    1
    35     8     9    1
    36     8    47    1
    37    47    48    1
    38    53    48   ar
    39    53    58    1
    40    52    53   ar
    41    51    52   ar
    42    51    56    1
    43    50    51   ar
    44    50    55    1
    45    49    50   ar
    46    49    54    1
    47    48    49   ar
    48    52    57    1
    49     8    46    1
    50     7     8    1
    51     7    42    1
    52     6     7    1
    53     6    11    1
    54     5     6    2
    55     5    44    1
    56     3     5    2
    57     3    45    2
    58     2     3    1
    59     2    25    1
    60     2    24    1
    61     1     2    1
    62     7     4    1
