@<TRIPOS>MOLECULE
63
 64 69 0 0 0
SMALL
GASTEIGER

@<TRIPOS>ATOM
      1 ****        2.3432   -1.2106   -1.5182 C.3     1  WATER21111    0.0053
      2 ****        3.8794   -1.2482   -1.4676 C.3     1  WATER21111   -0.0468
      3 C3          4.4938    0.1498   -1.4014 C.1     1  WATER21111    0.2541
      4 ****        1.6450    1.9587    1.4771 H       1  WATER21111    0.0194
      5 C5          3.6649    1.1968   -0.7352 C.1     1  WATER21111   -0.1286
      6 C5          2.3879    1.0230   -0.3102 C.2     1  WATER21111   -0.0498
      7 C6          1.6768    2.1692    0.3804 C.3     1  WATER21111    0.0301
      8 C7          0.2391    2.4264   -0.1193 C.3     1  WATER21111   -0.1022
      9 ****       -0.5793    1.0966   -0.0860 C.3     1  WATER21111    0.0121
     10 ****        0.1365   -0.0462   -0.8991 C.3     1  WATER21111   -0.0120
     11 ****        1.6350   -0.3173   -0.4335 C.3     1  WATER21111   -0.0286
     12 ****       -0.7218   -1.3433   -1.0205 C.3     1  WATER21111   -0.0032
     13 ****       -2.2390   -1.1730   -1.2614 C.3     1  WATER21111    0.0217
     14 ****       -2.8808   -0.1089   -0.3362 C.3     1  WATER21111   -0.1185
     15 ****       -2.0579    1.2212   -0.5482 C.3     1  WATER21111   -0.0279
     16 ****       -2.9890    2.3477   -0.0280 C.3     1  WATER21111   -0.0012
     17 ****       -4.4198    1.8788   -0.3798 C.3     1  WATER21111   -0.0510
     18 ****       -4.3104    0.3809   -0.7129 C.2     1  WATER21111    0.2335
     19 ****       -2.9874   -0.6432    1.1213 C.3     1  WATER21111    0.0540
     20 ****        1.7285   -1.0323    0.9506 C.3     1  WATER21111    0.0466
     21 ****       -5.2040   -0.3005   -1.1860 O.2     1  WATER21111   -0.2723
     22 ****        2.0509   -0.8628   -2.5360 H       1  WATER21111    0.0133
     23 ****        1.9842   -2.2614   -1.4414 H       1  WATER21111    0.0125
     24 ****        4.2377   -1.8311   -0.5889 H       1  WATER21111    0.0304
     25 ****        4.2477   -1.7942   -2.3656 H       1  WATER21111    0.0351
     26 ****        1.4630   -2.1065    0.8859 H       1  WATER21111    0.0006
     27 ****       -0.5996    0.8120    0.9948 H       1  WATER21111    0.0153
     28 ****        0.2216    0.3389   -1.9481 H       1  WATER21111    0.0238
     29 ****       -0.3369   -1.9412   -1.8790 H       1  WATER21111    0.0077
     30 ****       -0.5906   -1.9877   -0.1237 H       1  WATER21111    0.0056
     31 ****       -2.4149   -0.9083   -2.3289 H       1  WATER21111    0.0137
     32 ****       -2.7278   -2.1633   -1.1207 H       1  WATER21111    0.0175
     33 ****       -2.0142    1.3949   -1.6574 H       1  WATER21111    0.0260
     34 ****       -2.7703    3.3175   -0.5192 H       1  WATER21111    0.0226
     35 ****       -2.8823    2.5197    1.0634 H       1  WATER21111    0.0119
     36 ****       -5.1219    2.0389    0.4651 H       1  WATER21111    0.0347
     37 ****       -4.8272    2.4445   -1.2443 H       1  WATER21111    0.0385
     38 ****       -3.6662   -1.5202    1.1661 H       1  WATER21111    0.0063
     39 ****       -2.0143   -0.9707    1.5351 H       1  WATER21111   -0.0011
     40 ****       -3.3887    0.1155    1.8234 H       1  WATER21111   -0.0050
     41 ****        1.0627   -0.5798    1.7112 H       1  WATER21111   -0.0023
     42 ****        2.2672    3.1094    0.3012 H       1  WATER21111    0.0172
     43 ****        2.7575   -0.9843    1.3633 H       1  WATER21111   -0.0034
     44 ****        4.1695    2.1589   -0.6018 H       1  WATER21111    0.0751
     45 ****        5.6066    0.3955   -1.8564 O.2     1  WATER21111   -0.2865
     46 ****       -0.2230    3.1183    0.6258 H       1  WATER21111    0.0235
     47 S47         0.1160    3.2133   -1.6825 S.3     1  WATER21111    0.1071
     48 ****        1.1514    4.5556   -1.7997 C.ar    2  <2>222     -0.1979
     49 ****        2.2614    4.4177   -2.6272 C.ar    2  <2>222      0.0081
     50 ****        3.1654    5.4988   -2.8470 C.ar    2  <2>222     -0.0762
     51 ****        2.9522    6.7135   -2.2277 C.ar    2  <2>222     -0.0121
     52 ****        1.8053    6.9157   -1.3839 C.ar    2  <2>222     -0.0526
     53 ****        0.8749    5.8377   -1.1850 C.ar    2  <2>222      0.0017
     54 ****        2.4690    3.4710   -3.1310 H       2  <2>222      0.0698
     55 ****        4.0235    5.3461   -3.5025 H       2  <2>222      0.0688
     56 ****        3.6545    7.5348   -2.3819 H       2  <2>222      0.0626
     57 C57         1.5657    8.1845   -0.7471 C.2     2  <2>222     -0.0360
     58 C58        -0.2967    6.1083   -0.3917 C.2     2  <2>222     -0.0518
     59 ****       -0.5046    7.3400    0.2008 C.1     3  <3>333     -0.0473
     60 ****        0.4435    8.3929    0.0304 C.1     3  <3>333     -0.0598
     61 ****        2.2860    8.9924   -0.8880 H       2  <2>222      0.0604
     62 ****       -1.0533    5.3347   -0.2623 H       2  <2>222      0.0622
     63 ****       -1.3974    7.5227    0.8004 H       3  <3>333      0.0618
     64 ****        0.2655    9.3545    0.5125 H       3  <3>333      0.0635
@<TRIPOS>BOND
     1     1    23    1
     2     1    22    1
     3     1    11    1
     4    11    20    1
     5    20    43    1
     6    20    41    1
     7    20    26    1
     8    10    11    1
     9    10    28    1
    10    10    12    1
    11    12    30    1
    12    12    29    1
    13    12    13    1
    14    13    32    1
    15    13    31    1
    16    13    14    1
    17    14    19    1
    18    19    40    1
    19    19    39    1
    20    19    38    1
    21    14    18    1
    22    18    21    2
    23    17    18    1
    24    17    37    1
    25    17    36    1
    26    16    17    1
    27    16    35    1
    28    16    34    1
    29    15    16    1
    30    15    33    1
    31    14    15    1
    32     9    15    1
    33     9    27    1
    34     9    10    1
    35     8     9    1
    36     8    47    1
    37    47    48    1
    38    53    48   ar
    39    53    58    1
    40    58    62    1
    41    58    59    2
    42    59    63    1
    43    59    60    2
    44    60    64    1
    45    57    60    2
    46    57    61    1
    47    52    57    1
    48    52    53   ar
    49    51    52   ar
    50    51    56    1
    51    50    51   ar
    52    50    55    1
    53    49    50   ar
    54    49    54    1
    55    48    49   ar
    56     8    46    1
    57     7     8    1
    58     7    42    1
    59     6     7    1
    60     6    11    1
    61     5     6    2
    62     5    44    1
    63     3     5    2
    64     3    45    2
    65     2     3    1
    66     2    25    1
    67     2    24    1
    68     1     2    1
    69     7     4    1
