@<TRIPOS>MOLECULE
64
 64 69 0 0 0
SMALL
GASTEIGER

@<TRIPOS>ATOM
      1 ****        2.3397   -1.2054   -1.5187 C.3     1  WATER21111    0.0048
      2 ****        3.8761   -1.2420   -1.4924 C.3     1  WATER21111   -0.0460
      3 C3          4.4938    0.1537   -1.3992 C.1     1  WATER21111    0.2540
      4 ****        1.6435    1.9618    1.4847 H       1  WATER21111    0.0177
      5 C5          3.6597    1.2014   -0.7400 C.1     1  WATER21111   -0.1245
      6 C5          2.3870    1.0232   -0.3047 C.2     1  WATER21111   -0.0495
      7 C6          1.6754    2.1683    0.3878 C.3     1  WATER21111    0.0330
      8 C7          0.2385    2.4183   -0.1209 C.3     1  WATER21111   -0.1069
      9 ****       -0.5797    1.0910   -0.0805 C.3     1  WATER21111    0.0117
     10 ****        0.1365   -0.0536   -0.8895 C.3     1  WATER21111   -0.0122
     11 ****        1.6371   -0.3188   -0.4265 C.3     1  WATER21111   -0.0276
     12 ****       -0.7227   -1.3504   -1.0065 C.3     1  WATER21111   -0.0032
     13 ****       -2.2383   -1.1760   -1.2567 C.3     1  WATER21111    0.0215
     14 ****       -2.8823   -0.1081   -0.3367 C.3     1  WATER21111   -0.1180
     15 ****       -2.0556    1.2194   -0.5479 C.3     1  WATER21111   -0.0290
     16 ****       -2.9840    2.3503   -0.0328 C.3     1  WATER21111   -0.0009
     17 ****       -4.4142    1.8856   -0.3924 C.3     1  WATER21111   -0.0507
     18 ****       -4.3088    0.3857   -0.7195 C.2     1  WATER21111    0.2334
     19 ****       -2.9955   -0.6403    1.1211 C.3     1  WATER21111    0.0538
     20 ****        1.7366   -1.0374    0.9547 C.3     1  WATER21111    0.0468
     21 ****       -5.2038   -0.2939   -1.1926 O.2     1  WATER21111   -0.2717
     22 ****        2.0343   -0.8569   -2.5327 H       1  WATER21111    0.0136
     23 ****        1.9850   -2.2578   -1.4399 H       1  WATER21111    0.0115
     24 ****        4.2454   -1.8467   -0.6330 H       1  WATER21111    0.0298
     25 ****        4.2322   -1.7647   -2.4089 H       1  WATER21111    0.0353
     26 ****        1.4700   -2.1113    0.8889 H       1  WATER21111    0.0004
     27 ****       -0.6027    0.8100    1.0010 H       1  WATER21111    0.0161
     28 ****        0.2195    0.3273   -1.9404 H       1  WATER21111    0.0237
     29 ****       -0.3355   -1.9550   -1.8592 H       1  WATER21111    0.0083
     30 ****       -0.5967   -1.9895   -0.1053 H       1  WATER21111    0.0059
     31 ****       -2.4067   -0.9122   -2.3256 H       1  WATER21111    0.0138
     32 ****       -2.7311   -2.1644   -1.1172 H       1  WATER21111    0.0177
     33 ****       -2.0071    1.3922   -1.6571 H       1  WATER21111    0.0263
     34 ****       -2.7572    3.3197   -0.5220 H       1  WATER21111    0.0196
     35 ****       -2.8827    2.5222    1.0592 H       1  WATER21111    0.0118
     36 ****       -5.1216    2.0519    0.4469 H       1  WATER21111    0.0350
     37 ****       -4.8127    2.4496   -1.2621 H       1  WATER21111    0.0385
     38 ****       -3.6797   -1.5131    1.1645 H       1  WATER21111    0.0066
     39 ****       -2.0252   -0.9731    1.5375 H       1  WATER21111   -0.0007
     40 ****       -3.3939    0.1215    1.8214 H       1  WATER21111   -0.0052
     41 ****        1.0744   -0.5862    1.7193 H       1  WATER21111   -0.0029
     42 ****        2.2613    3.1112    0.3007 H       1  WATER21111    0.0166
     43 ****        2.7673   -0.9906    1.3628 H       1  WATER21111   -0.0031
     44 ****        4.1570    2.1693   -0.6206 H       1  WATER21111    0.0752
     45 ****        5.6176    0.3961   -1.8284 O.2     1  WATER21111   -0.2867
     46 ****       -0.2332    3.1233    0.6044 H       1  WATER21111    0.0231
     47 S47         0.1937    3.1676   -1.7050 S.3     1  WATER21111    0.1203
     48 ****        0.7588    4.7626   -1.6090 C.ar    2  <2>222     -0.2048
     49 ****        1.9059    5.1086   -2.4022 C.ar    2  <2>222     -0.0199
     50 ****        2.3703    6.4083   -2.4477 C.ar    2  <2>222     -0.0477
     51 ****        1.7255    7.4554   -1.7018 C.ar    2  <2>222     -0.0200
     52 ****        0.5788    7.1226   -0.9085 C.ar    2  <2>222     -0.0521
     53 ****        0.1148    5.7612   -0.8914 C.ar    2  <2>222      0.0037
     54 ****        2.4092    4.3303   -2.9787 H       2  <2>222      0.0716
     55 ****        3.2416    6.6500   -3.0591 H       2  <2>222      0.0644
     56 C56         2.1837    8.8193   -1.7235 C.ar    2  <2>222     -0.0455
     57 C57        -0.0728    8.1653   -0.1597 C.ar    2  <2>222     -0.0370
     58 ****       -0.7713    5.5301   -0.2968 H       2  <2>222      0.0590
     59 ****        0.3926    9.4660   -0.2008 C.ar    2  <2>222     -0.0579
     60 ****        1.5348    9.7973   -0.9934 C.ar    2  <2>222     -0.0478
     61 ****        3.0548    9.0782   -2.3275 H       2  <2>222      0.0624
     62 ****       -0.9461    7.9195    0.4466 H       2  <2>222      0.0592
     63 ****       -0.1038   10.2532    0.3677 H       2  <2>222      0.0626
     64 ****        1.8843   10.8303   -1.0124 H       2  <2>222      0.0628
@<TRIPOS>BOND
     1     1    11    1
     2    10    11    1
     3     9    10    1
     4     9    27    1
     5     9    15    1
     6    15    33    1
     7    14    15    1
     8    13    14    1
     9    12    13    1
    10    10    12    1
    11    12    29    1
    12    12    30    1
    13    13    32    1
    14    13    31    1
    15    14    18    1
    16    18    21    2
    17    17    18    1
    18    17    36    1
    19    17    37    1
    20    16    17    1
    21    15    16    1
    22    16    34    1
    23    16    35    1
    24    14    19    1
    25    19    39    1
    26    19    38    1
    27    19    40    1
    28     8     9    1
    29     7     8    1
    30     6     7    1
    31     6    11    1
    32     5     6    2
    33     3     5    2
    34     2     3    1
    35     1     2    1
    36     2    25    1
    37     2    24    1
    38     3    45    2
    39     5    44    1
    40     7     4    1
    41     7    42    1
    42     8    46    1
    43     8    47    1
    44    47    48    1
    45    53    48   ar
    46    53    58    1
    47    52    53   ar
    48    52    57   ar
    49    57    59   ar
    50    59    63    1
    51    60    59   ar
    52    56    60   ar
    53    51    56   ar
    54    50    51   ar
    55    50    55    1
    56    49    50   ar
    57    48    49   ar
    58    49    54    1
    59    51    52   ar
    60    56    61    1
    61    60    64    1
    62    57    62    1
    63    10    28    1
    64    11    20    1
    65    20    43    1
    66    20    26    1
    67    20    41    1
    68     1    22    1
    69     1    23    1
