@<TRIPOS>MOLECULE
69
 63 67 0 0 0
SMALL
GASTEIGER

@<TRIPOS>ATOM
      1 ****        2.2288   -1.2597   -1.3270 C.3     1  WATER21111    0.0072
      2 ****        3.7403   -1.2609   -1.2934 C.3     1  WATER21111   -0.0509
      3 C3          4.3086    0.1054   -1.5510 C.1     1  WATER21111    0.2466
      4 ****       -0.2920    3.4154    1.0661 C.3     1  WATER21111    0.0303
      5 C5          3.5352    1.2305   -1.0097 C.1     1  WATER21111   -0.1161
      6 C5          2.3065    1.0883   -0.4768 C.1     1  WATER21111   -0.0200
      7 C6          1.5853    2.2277    0.0613 C.1     1  WATER21111   -0.0420
      8 C7          0.2714    2.2226    0.3670 C.2     1  WATER21111   -0.1001
      9 ****       -0.5814    1.0094    0.1544 C.3     1  WATER21111    0.0307
     10 ****        0.1309    0.0112   -0.7929 C.3     1  WATER21111   -0.0228
     11 ****        1.5953   -0.2386   -0.3760 C.3     1  WATER21111   -0.0500
     12 ****       -0.6476   -1.2868   -0.9555 C.3     1  WATER21111   -0.0098
     13 ****       -2.0816   -1.0629   -1.3985 C.3     1  WATER21111    0.0173
     14 ****       -2.7709   -0.0808   -0.4738 C.3     1  WATER21111   -0.1332
     15 ****       -1.9582    1.2426   -0.4566 C.3     1  WATER21111   -0.0274
     16 ****       -2.9596    2.2544    0.0998 C.3     1  WATER21111   -0.0039
     17 ****       -4.3002    1.8421   -0.5128 C.3     1  WATER21111   -0.0569
     18 ****       -4.1443    0.3981   -0.9355 C.2     1  WATER21111    0.2337
     19 ****       -2.9781   -0.6964    0.9039 C.3     1  WATER21111    0.0492
     20 ****        1.6988   -0.7525    1.0554 C.3     1  WATER21111    0.0475
     21 ****       -4.9834   -0.2679   -1.5341 O.2     1  WATER21111   -0.2704
     22 ****        1.8896   -1.0426   -2.3751 H       1  WATER21111    0.0144
     23 ****        1.8648   -2.2861   -1.0558 H       1  WATER21111    0.0162
     24 ****        4.1102   -1.6014   -0.2886 H       1  WATER21111    0.0332
     25 ****        4.1334   -1.9838   -2.0568 H       1  WATER21111    0.0396
     26 ****        1.1099   -1.6931    1.1737 H       1  WATER21111    0.0027
     27 ****       -0.7114    0.5315    1.1685 H       1  WATER21111    0.0283
     28 ****        0.1723    0.5020   -1.8103 H       1  WATER21111    0.0193
     29 ****       -0.1467   -1.9246   -1.7322 H       1  WATER21111    0.0144
     30 ****       -0.6321   -1.8632    0.0058 H       1  WATER21111    0.0128
     31 ****       -2.0995   -0.6657   -2.4472 H       1  WATER21111    0.0147
     32 ****       -2.6356   -2.0375   -1.3993 H       1  WATER21111    0.0249
     33 ****       -1.7836    1.5433   -1.5331 H       1  WATER21111    0.0191
     34 ****       -2.6951    3.2992   -0.1920 H       1  WATER21111    0.0169
     35 ****       -3.0151    2.1993    1.2154 H       1  WATER21111    0.0175
     36 ****       -5.1371    1.9397    0.2220 H       1  WATER21111    0.0406
     37 ****       -4.5486    2.4701   -1.4049 H       1  WATER21111    0.0399
     38 ****       -3.6857   -1.5577    0.8209 H       1  WATER21111    0.0111
     39 ****       -2.0181   -1.0725    1.3292 H       1  WATER21111    0.0034
     40 ****       -3.4077    0.0544    1.6099 H       1  WATER21111   -0.0027
     41 ****        1.3121    0.0086    1.7748 H       1  WATER21111    0.0000
     42 ****        2.1880    3.1369    0.2392 H       1  WATER21111    0.0574
     43 ****        2.7646   -0.9667    1.3112 H       1  WATER21111    0.0008
     44 ****        4.0240    2.2170   -1.0725 H       1  WATER21111    0.0793
     45 ****        5.3721    0.2699   -2.1605 O.2     1  WATER21111   -0.2848
     46 C46        -0.5299    4.5996    0.1383 C.3     1  WATER21111    0.0285
     47 ****        0.4196    3.7245    1.8822 H       1  WATER21111    0.0124
     48 ****        0.6092    5.5588    0.1166 C.ar    2  <2>222     -0.0424
     49 ****        0.9168    6.3073    1.2612 C.ar    2  <2>222     -0.0638
     50 ****        1.9569    7.2304    1.2508 C.ar    2  <2>222      0.0134
     51 ****        2.7016    7.4074    0.0728 C.ar    2  <2>222     -0.0963
     52 ****        2.4077    6.6640   -1.0810 C.ar    2  <2>222      0.0140
     53 ****        1.3625    5.7446   -1.0485 C.ar    2  <2>222     -0.0613
     54 ****        0.3258    6.1664    2.1796 H       2  <2>222      0.0743
     55 ****        2.1944    7.8189    2.1536 H       2  <2>222      0.0982
     56 N56         3.8112    8.3955    0.0480 N.pl3   2  <2>222      0.5039
     57 ****        2.9983    6.8080   -2.0024 H       2  <2>222      0.0992
     58 ****        1.1303    5.1603   -1.9529 H       2  <2>222      0.0761
     59 ****       -0.7403    4.2295   -0.9008 H       1  WATER21111    0.0176
     60 ****       -1.4456    5.1529    0.4868 H       1  WATER21111    0.0184
     61 ****       -1.2512    3.1430    1.5781 H       1  WATER21111    0.0151
     62 O62         4.4331    8.5470   -0.9692 O.2     2  <2>222     -0.3416
     63 O63         4.0574    9.0188    1.0461 O.2     2  <2>222     -0.3439
@<TRIPOS>BOND
     1     1    23    1
     2     1    11    1
     3    11    20    1
     4    20    43    1
     5    20    41    1
     6    20    26    1
     7     6    11    1
     8     6     7    2
     9     7    42    1
    10     7     8    2
    11     8     4    1
    12     4    46    1
    13    46    59    1
    14    48    46    1
    15    48    49   ar
    16    49    54    1
    17    49    50   ar
    18    50    55    1
    19    50    51   ar
    20    51    56    1
    21    56    63    2
    22    56    62    2
    23    51    52   ar
    24    52    57    1
    25    52    53   ar
    26    53    58    1
    27    53    48   ar
    28    46    60    1
    29     4    61    1
    30     4    47    1
    31     8     9    1
    32     9    15    1
    33    15    33    1
    34    15    16    1
    35    16    34    1
    36    16    35    1
    37    16    17    1
    38    17    37    1
    39    17    18    1
    40    14    18    1
    41    13    14    1
    42    12    13    1
    43    12    30    1
    44    10    12    1
    45    10    28    1
    46    10    11    1
    47     9    10    1
    48    12    29    1
    49    13    32    1
    50    13    31    1
    51    14    19    1
    52    19    39    1
    53    19    38    1
    54    19    40    1
    55    14    15    1
    56    18    21    2
    57    17    36    1
    58     9    27    1
    59     5     6    2
    60     3     5    2
    61     3    45    2
    62     2     3    1
    63     1     2    1
    64     2    25    1
    65     2    24    1
    66     5    44    1
    67     1    22    1
