@<TRIPOS>MOLECULE
77
 49 53 0 0 0
SMALL
GASTEIGER

@<TRIPOS>ATOM
      1 ****        2.3766   -0.9945   -1.8011 C.3     1  WATER21111    0.0052
      2 ****        3.7551   -1.3309   -1.1810 C.3     1  WATER21111   -0.0930
      3 C3          4.5548   -0.0158   -1.0976 C.1     1  WATER21111    0.2667
      4 ****        1.8234    2.3099    1.2418 H       1  WATER21111    0.0237
      5 C5          3.7375    1.1556   -0.6505 C.1     1  WATER21111   -0.1328
      6 C5          2.3979    1.0785   -0.4119 C.2     1  WATER21111   -0.0343
      7 C6          1.6841    2.2944    0.1340 C.3     1  WATER21111    0.0281
      8 C7          0.1893    2.4039   -0.1893 C.3     1  WATER21111   -0.0021
      9 ****       -0.5728    1.0634   -0.0757 C.3     1  WATER21111   -0.0108
     10 ****        0.1216   -0.0352   -0.9585 C.3     1  WATER21111   -0.0066
     11 ****        1.6436   -0.2563   -0.6175 C.3     1  WATER21111   -0.0511
     12 ****       -0.7265   -1.3383   -1.0802 C.3     1  WATER21111   -0.0038
     13 ****       -2.2488   -1.1660   -1.2955 C.3     1  WATER21111    0.0217
     14 ****       -2.8808   -0.1392   -0.3210 C.3     1  WATER21111   -0.1186
     15 ****       -2.0629    1.1965   -0.4930 C.3     1  WATER21111   -0.0284
     16 ****       -2.9793    2.3063    0.0841 C.3     1  WATER21111   -0.0015
     17 ****       -4.4155    1.8533   -0.2669 C.3     1  WATER21111   -0.0515
     18 ****       -4.3153    0.3671   -0.6555 C.2     1  WATER21111    0.2325
     19 ****       -2.9618   -0.7281    1.1168 C.3     1  WATER21111    0.0560
     20 ****        2.0072   -1.2402    0.5990 C.3     1  WATER21111    0.1337
     21 ****       -5.2182   -0.2946   -1.1383 O.2     1  WATER21111   -0.2703
     22 ****        2.4524   -0.3729   -2.7167 H       1  WATER21111    0.0211
     23 ****        1.8638   -1.9259   -2.1178 H       1  WATER21111    0.0162
     24 C24         3.4042   -1.8611    0.2344 C.3     1  WATER21111    0.0029
     25 ****        4.2983   -2.0967   -1.7720 H       1  WATER21111    0.0529
     26 ****        1.2696   -2.0856    0.6193 H       1  WATER21111    0.0030
     27 ****       -0.5337    0.7581    0.9962 H       1  WATER21111    0.0140
     28 ****        0.1350    0.3854   -2.0005 H       1  WATER21111    0.0128
     29 ****       -0.3524   -1.9290   -1.9476 H       1  WATER21111    0.0091
     30 ****       -0.5858   -1.9898   -0.1904 H       1  WATER21111    0.0024
     31 ****       -2.4401   -0.8619   -2.3496 H       1  WATER21111    0.0128
     32 ****       -2.7323   -2.1626   -1.1858 H       1  WATER21111    0.0185
     33 ****       -2.0384    1.4196   -1.5955 H       1  WATER21111    0.0126
     34 ****       -2.7581    3.2938   -0.3718 H       1  WATER21111    0.0171
     35 ****       -2.8566    2.4358    1.1795 H       1  WATER21111    0.0163
     36 ****       -5.1070    1.9845    0.5915 H       1  WATER21111    0.0367
     37 ****       -4.8310    2.4502   -1.1061 H       1  WATER21111    0.0375
     38 ****       -3.6141   -1.6258    1.1340 H       1  WATER21111    0.0074
     39 ****       -1.9756   -1.0395    1.5122 H       1  WATER21111   -0.0053
     40 ****       -3.3799   -0.0073    1.8482 H       1  WATER21111   -0.0037
     41 O41         2.0609   -0.6307    1.8509 O.3     1  WATER21111   -0.3104
     42 ****        2.1761    3.2229   -0.2413 H       1  WATER21111    0.0136
     43 ****        1.2346   -0.6991    2.3078 H       1  WATER21111    0.1828
     44 ****        4.2886    2.0885   -0.5095 H       1  WATER21111    0.0786
     45 ****        5.7450    0.0592   -1.3754 O.2     1  WATER21111   -0.2841
     46 ****       -0.2545    3.1480    0.5109 H       1  WATER21111    0.0086
     47 ****        0.0694    2.8348   -1.2097 H       1  WATER21111    0.0102
     48 ****        4.1928   -1.6272    0.9779 H       1  WATER21111    0.0383
     49 ****        3.3231   -2.9692    0.2173 H       1  WATER21111    0.0153
@<TRIPOS>BOND
     1     1    23    1
     2     1    22    1
     3     1    11    1
     4    11    20    1
     5    20    41    1
     6    41    43    1
     7    20    26    1
     8    24    20    1
     9    24    49    1
    10    24    48    1
    11     2    24    1
    12     2    25    1
    13     2     3    1
    14     3    45    2
    15     3     5    2
    16     5    44    1
    17     5     6    2
    18    11     6    1
    19     6     7    1
    20     7    42    1
    21     7     8    1
    22     8    47    1
    23     8    46    1
    24     8     9    1
    25     9    27    1
    26     9    15    1
    27    15    33    1
    28    15    16    1
    29    16    35    1
    30    16    34    1
    31    16    17    1
    32    17    37    1
    33    17    36    1
    34    18    17    1
    35    18    21    2
    36    14    18    1
    37    14    19    1
    38    19    40    1
    39    19    39    1
    40    19    38    1
    41    15    14    1
    42    13    14    1
    43    13    32    1
    44    13    31    1
    45    12    13    1
    46    12    30    1
    47    12    29    1
    48    10    12    1
    49    10    28    1
    50    11    10    1
    51     9    10    1
    52     7     4    1
    53     1     2    1
