@<TRIPOS>MOLECULE
Steroids.8
 54 57 0 0 0
SMALL
GASTEIGER

@<TRIPOS>ATOM
      1 C          -3.0058   -0.7611   -1.0621 C.3     1  LIG1       -0.0362
      2 C          -1.8077   -0.5631   -0.1034 C.3     1  LIG1       -0.0005
      3 C          -0.7528    1.2555   -1.6153 C.2     1  LIG1        0.1381
      4 C           0.3706    1.7167   -2.5055 C.3     1  LIG1        0.0148
      5 C           1.6836    1.6455   -1.6986 C.3     1  LIG1        0.0134
      6 C           1.8438    0.1963   -1.2088 C.3     1  LIG1       -0.0286
      7 C           3.2812    0.1409   -0.6727 C.3     1  LIG1       -0.0463
      8 C           4.0491    1.1155   -1.5932 C.3     1  LIG1       -0.0161
      9 C           2.9971    1.8084   -2.4991 C.3     1  LIG1        0.1317
     10 C           1.6391    2.6577   -0.5292 C.3     1  LIG1       -0.0558
     11 C          -2.1492    0.4646    0.9982 C.3     1  LIG1       -0.0551
     12 C          -4.1945   -1.4018   -0.3240 C.3     1  LIG1        0.0106
     13 C           3.3851    3.2309   -2.8212 C.2     1  LIG1        0.1901
     14 C           2.6231    3.9361   -3.9084 C.3     1  LIG1        0.1051
     15 C          -3.7397   -2.6577    0.3625 C.2     1  LIG1        0.1560
     16 C          -2.4819   -2.7965    0.7959 C.2     1  LIG1       -0.0194
     17 C          -1.5371   -1.8650    0.6199 C.2     1  LIG1       -0.0596
     18 C          -0.1588   -2.0815    1.1843 C.3     1  LIG1       -0.0305
     19 C           0.9441   -1.6760    0.1926 C.3     1  LIG1       -0.0455
     20 C           0.7327   -0.2100   -0.2222 C.3     1  LIG1       -0.0270
     21 C          -0.6095   -0.1097   -0.9805 C.3     1  LIG1        0.0296
     22 O          -1.7202    1.9758   -1.4351 O.2     1  LIG1       -0.2970
     23 O           2.9083    1.0374   -3.7508 O.3     1  LIG1       -0.3804
     24 O           4.3001    3.7927   -2.2415 O.2     1  LIG1       -0.2918
     25 O           2.9032    5.3797   -3.8738 O.3     1  LIG1       -0.3874
     26 O          -4.5376   -3.5643    0.5375 O.2     1  LIG1       -0.2926
     27 H          -3.3184    0.2015   -1.4910 H       1  LIG1        0.0277
     28 H          -2.6991   -1.4362   -1.8751 H       1  LIG1        0.0277
     29 H           0.1792    2.7476   -2.8328 H       1  LIG1        0.0348
     30 H           0.4285    1.0553   -3.3815 H       1  LIG1        0.0348
     31 H           1.7884   -0.4698   -2.0831 H       1  LIG1        0.0310
     32 H           3.6866   -0.8800   -0.7271 H       1  LIG1        0.0269
     33 H           3.3104    0.5087    0.3636 H       1  LIG1        0.0269
     34 H           4.7856    0.5780   -2.2081 H       1  LIG1        0.0297
     35 H           4.5637    1.8479   -0.9541 H       1  LIG1        0.0297
     36 H           1.5306    3.6726   -0.9397 H       1  LIG1        0.0236
     37 H           2.5696    2.6022    0.0545 H       1  LIG1        0.0236
     38 H           0.7839    2.4451    0.1288 H       1  LIG1        0.0236
     39 H          -2.5688    1.3822    0.5642 H       1  LIG1        0.0238
     40 H          -1.2401    0.7097    1.5669 H       1  LIG1        0.0238
     41 H          -2.8929    0.0267    1.6806 H       1  LIG1        0.0238
     42 H          -4.9860   -1.6306   -1.0527 H       1  LIG1        0.0345
     43 H          -4.5818   -0.6938    0.4231 H       1  LIG1        0.0345
     44 H           1.5434    3.7866   -3.7820 H       1  LIG1        0.0637
     45 H           2.9324    3.5345   -4.8843 H       1  LIG1        0.0637
     46 H          -2.2135   -3.7152    1.3149 H       1  LIG1        0.0651
     47 H          -0.0207   -3.1427    1.4391 H       1  LIG1        0.0310
     48 H          -0.0512   -1.4766    2.0965 H       1  LIG1        0.0310
     49 H           0.8966   -2.3209   -0.6974 H       1  LIG1        0.0271
     50 H           1.9255   -1.7881    0.6758 H       1  LIG1        0.0271
     51 H           0.7375    0.4388    0.6652 H       1  LIG1        0.0310
     52 H          -0.5413   -0.8301   -1.8089 H       1  LIG1        0.0388
     53 H           2.2654    1.3451   -4.3791 H       1  LIG1        0.2107
     54 H           3.8156    5.6159   -3.9924 H       1  LIG1        0.2099
@<TRIPOS>BOND
     1     1    12    1
     2     2    11    1
     3    21     3    1
     4     3     4    1
     5     4     5    1
     6     5     6    1
     7     6     7    1
     8     7     8    1
     9     8     9    1
    10     5    10    1
    11    12    15    1
    12     9    13    1
    13    13    14    1
    14    15    16    1
    15    16    17    2
    16    17    18    1
    17    18    19    1
    18    19    20    1
    19    20    21    1
    20    21     2    1
    21     3    22    2
    22     9    23    1
    23    13    24    2
    24    14    25    1
    25    15    26    2
    26     1     2    1
    27    17     2    1
    28    20     6    1
    29     5     9    1
    30     1    27    1
    31     1    28    1
    32     4    29    1
    33     4    30    1
    34     6    31    1
    35     7    32    1
    36     7    33    1
    37     8    34    1
    38     8    35    1
    39    10    36    1
    40    10    37    1
    41    10    38    1
    42    11    39    1
    43    11    40    1
    44    11    41    1
    45    12    42    1
    46    12    43    1
    47    14    44    1
    48    14    45    1
    49    16    46    1
    50    18    47    1
    51    18    48    1
    52    19    49    1
    53    19    50    1
    54    20    51    1
    55    21    52    1
    56    23    53    1
    57    25    54    1
