@<TRIPOS>MOLECULE
Steroids.19
 53 56 0 0 0
SMALL
GASTEIGER

@<TRIPOS>ATOM
      1 C          -3.0030   -0.8207   -1.1066 C.3     1  LIG1       -0.0366
      2 C          -1.8003   -0.5873   -0.1608 C.3     1  LIG1       -0.0072
      3 C          -0.8091    1.2650   -1.6441 C.3     1  LIG1       -0.0486
      4 C           0.3862    1.6956   -2.5269 C.3     1  LIG1       -0.0464
      5 C           1.6787    1.6381   -1.6883 C.3     1  LIG1       -0.0194
      6 C           1.8570    0.1871   -1.2228 C.3     1  LIG1       -0.0318
      7 C           3.2881    0.1560   -0.6657 C.3     1  LIG1       -0.0487
      8 C           4.0520    1.1405   -1.5799 C.3     1  LIG1       -0.0427
      9 C           2.9894    1.8282   -2.4749 C.3     1  LIG1        0.0228
     10 C           1.6292    2.6468   -0.5152 C.3     1  LIG1       -0.0586
     11 C          -2.1527    0.5015    0.8752 C.3     1  LIG1       -0.0555
     12 C          -4.1952   -1.4088   -0.3286 C.3     1  LIG1        0.0106
     13 C           3.2980    3.2690   -2.7806 C.2     1  LIG1        0.1338
     14 C           2.4528    3.9415   -3.8220 C.3     1  LIG1       -0.0057
     15 C          -3.7496   -2.6387    0.4090 C.2     1  LIG1        0.1560
     16 C          -2.4885   -2.7751    0.8341 C.2     1  LIG1       -0.0194
     17 C          -1.5353   -1.8630    0.6103 C.2     1  LIG1       -0.0600
     18 C          -0.1517   -2.0813    1.1638 C.3     1  LIG1       -0.0305
     19 C           0.9498   -1.6919    0.1642 C.3     1  LIG1       -0.0459
     20 C           0.7313   -0.2321   -0.2617 C.3     1  LIG1       -0.0337
     21 C          -0.6002   -0.1490   -1.0415 C.3     1  LIG1       -0.0287
     22 O           4.1858    3.8782   -2.2066 O.2     1  LIG1       -0.2973
     23 O          -4.5573   -3.5256    0.6309 O.2     1  LIG1       -0.2926
     24 H          -2.7104   -1.5370   -1.8891 H       1  LIG1        0.0277
     25 H          -3.3085    0.1251   -1.5769 H       1  LIG1        0.0277
     26 H          -0.9265    1.9982   -0.8346 H       1  LIG1        0.0268
     27 H          -1.7178    1.2685   -2.2614 H       1  LIG1        0.0268
     28 H           0.2182    2.7173   -2.8964 H       1  LIG1        0.0270
     29 H           0.4714    1.0068   -3.3804 H       1  LIG1        0.0270
     30 H           1.8269   -0.4673   -2.1082 H       1  LIG1        0.0308
     31 H           3.7102   -0.8583   -0.7094 H       1  LIG1        0.0268
     32 H           3.2937    0.5277    0.3690 H       1  LIG1        0.0268
     33 H           4.7840    0.6102   -2.2064 H       1  LIG1        0.0272
     34 H           4.5677    1.8737   -0.9427 H       1  LIG1        0.0272
     35 H           2.9117    1.2579   -3.4121 H       1  LIG1        0.0382
     36 H           1.4662    3.6566   -0.9203 H       1  LIG1        0.0235
     37 H           2.5832    2.6296    0.0316 H       1  LIG1        0.0235
     38 H           0.8121    2.4046    0.1781 H       1  LIG1        0.0235
     39 H          -2.5203    1.4007    0.3601 H       1  LIG1        0.0238
     40 H          -1.2597    0.7557    1.4643 H       1  LIG1        0.0238
     41 H          -2.9368    0.1286    1.5513 H       1  LIG1        0.0238
     42 H          -4.5642   -0.6662    0.3924 H       1  LIG1        0.0345
     43 H          -5.0004   -1.6593   -1.0342 H       1  LIG1        0.0345
     44 H           3.0139    4.7703   -4.2780 H       1  LIG1        0.0305
     45 H           1.5406    4.3369   -3.3524 H       1  LIG1        0.0305
     46 H           2.1763    3.2167   -4.6021 H       1  LIG1        0.0305
     47 H          -2.2216   -3.6747    1.3875 H       1  LIG1        0.0651
     48 H          -0.0155   -3.1406    1.4271 H       1  LIG1        0.0310
     49 H          -0.0320   -1.4706    2.0706 H       1  LIG1        0.0310
     50 H           0.9060   -2.3467   -0.7182 H       1  LIG1        0.0271
     51 H           1.9315   -1.7932    0.6485 H       1  LIG1        0.0271
     52 H           0.7144    0.4164    0.6250 H       1  LIG1        0.0306
     53 H          -0.5263   -0.8566   -1.8820 H       1  LIG1        0.0311
@<TRIPOS>BOND
     1     2     1    1
     2     2    11    1
     3     3    21    1
     4     4     3    1
     5     5     4    1
     6     6     5    1
     7     6     7    1
     8     7     8    1
     9     8     9    1
    10     5    10    1
    11    12    15    1
    12     9    13    1
    13    13    14    1
    14    15    16    1
    15    16    17    2
    16    17    18    1
    17    18    19    1
    18    19    20    1
    19    20     6    1
    20    21     2    1
    21    13    22    2
    22    15    23    2
    23     5     9    1
    24     2    17    1
    25     1    12    1
    26    21    20    1
    27     1    24    1
    28     1    25    1
    29     3    26    1
    30     3    27    1
    31     4    28    1
    32     4    29    1
    33     6    30    1
    34     7    31    1
    35     7    32    1
    36     8    33    1
    37     8    34    1
    38     9    35    1
    39    10    36    1
    40    10    37    1
    41    10    38    1
    42    11    39    1
    43    11    40    1
    44    11    41    1
    45    12    42    1
    46    12    43    1
    47    14    44    1
    48    14    45    1
    49    14    46    1
    50    16    47    1
    51    18    48    1
    52    18    49    1
    53    19    50    1
    54    19    51    1
    55    20    52    1
    56    21    53    1
