@<TRIPOS>MOLECULE
Mol_68
 88 92 0 0 0
SMALL
GASTEIGER
Energy = 0

@<TRIPOS>ATOM
      1 C           2.8115   -5.0995    0.3187 C.2     1  LIG11       0.3060
      2 C           2.2530   -5.6396    2.6300 C.3     1  LIG11       0.0416
      3 C           0.8597   -3.9745    1.3029 C.3     1  LIG11       0.0601
      4 C           1.1101   -2.4666    1.0558 C.3     1  LIG11       0.1016
      5 C           1.6166   -2.1828   -0.3836 C.3     1  LIG11       0.1016
      6 C           2.9916   -2.8357   -0.6597 C.3     1  LIG11       0.0601
      7 C           3.5298   -4.9524   -1.9791 C.3     1  LIG11       0.0416
      8 C           2.4765   -4.8129    3.9113 C.ar    1  LIG11      -0.0293
      9 C           1.6835   -5.0096    5.0471 C.ar    1  LIG11      -0.0449
     10 C           1.9281   -4.2776    6.2161 C.ar    1  LIG11       0.0390
     11 C           2.8643   -3.2405    6.2168 C.ar    1  LIG11      -0.0496
     12 C           3.6517   -3.0249    5.0863 C.ar    1  LIG11      -0.0607
     13 C           3.5057   -3.8666    3.9810 C.ar    1  LIG11      -0.0570
     14 C           1.2295   -4.5989    7.5163 C.2     1  LIG11       0.2667
     15 O           0.7115   -6.2118    9.2267 O.3     1  LIG11      -0.2829
     16 C          -0.5820   -6.8152    9.2696 C.3     1  LIG11       0.0622
     17 O           6.6294   -2.4199   -7.4390 O.3     1  LIG11      -0.2829
     18 C          -0.1722   -4.5887    0.3083 C.3     1  LIG11      -0.0064
     19 C          -0.7719   -5.9078    0.8231 C.ar    1  LIG11      -0.0455
     20 C          -1.9385   -5.9034    1.5981 C.ar    1  LIG11      -0.0585
     21 C          -2.5093   -7.1051    2.0291 C.ar    1  LIG11      -0.0615
     22 C          -1.9115   -8.3229    1.6941 C.ar    1  LIG11      -0.0617
     23 C          -0.7380   -8.3337    0.9354 C.ar    1  LIG11      -0.0615
     24 C          -0.1674   -7.1306    0.5090 C.ar    1  LIG11      -0.0585
     25 C           4.1052   -2.3391    0.3011 C.3     1  LIG11      -0.0064
     26 C           5.5255   -2.4942   -0.2650 C.ar    1  LIG11      -0.0455
     27 C           6.2645   -3.6662   -0.0613 C.ar    1  LIG11      -0.0585
     28 C           7.5681   -3.7739   -0.5564 C.ar    1  LIG11      -0.0615
     29 C           8.1399   -2.7123   -1.2632 C.ar    1  LIG11      -0.0617
     30 C           7.4043   -1.5434   -1.4755 C.ar    1  LIG11      -0.0615
     31 C           6.1015   -1.4383   -0.9804 C.ar    1  LIG11      -0.0585
     32 C           3.0899   -4.2472   -3.2697 C.ar    1  LIG11      -0.0293
     33 C           4.0173   -3.5196   -4.0214 C.ar    1  LIG11      -0.0449
     34 C           3.6298   -2.9168   -5.2223 C.ar    1  LIG11       0.0390
     35 C           2.2932   -2.9615   -5.6283 C.ar    1  LIG11      -0.0496
     36 C           1.3600   -3.6771   -4.8756 C.ar    1  LIG11      -0.0607
     37 C           1.7608   -4.3253   -3.7035 C.ar    1  LIG11      -0.0570
     38 C           4.6356   -2.2407   -6.1231 C.2     1  LIG11       0.2667
     39 C           6.2338   -3.1879   -8.5878 C.3     1  LIG11       0.0622
     40 H           3.1380   -6.2932    2.5896 H       1  LIG11       0.0514
     41 H           1.3787   -6.2991    2.7422 H       1  LIG11       0.0514
     42 N           2.0511   -4.8236    1.4176 N.am    1  LIG11      -0.2752
     43 N           3.0018   -4.3024   -0.7723 N.am    1  LIG11      -0.2752
     44 N           1.1350   -5.8831    7.9170 N.am    1  LIG11      -0.1909
     45 H           0.3435   -3.9875    2.2796 H       1  LIG11       0.0531
     46 N           5.8213   -2.8394   -6.3578 N.am    1  LIG11      -0.1909
     47 H           1.8434   -2.1282    1.8074 H       1  LIG11       0.0638
     48 O           3.3827   -6.1773    0.2970 O.2     1  LIG11      -0.2524
     49 O          -0.1345   -1.7804    1.3050 O.3     1  LIG11      -0.3873
     50 O           1.7612   -0.7661   -0.6179 O.3     1  LIG11      -0.3873
     51 O           0.8095   -3.6714    8.1899 O.2     1  LIG11      -0.2681
     52 O           4.3177   -1.1905   -6.6587 O.2     1  LIG11      -0.2681
     53 H           0.9133   -2.5762   -1.1359 H       1  LIG11       0.0638
     54 H           3.2870   -2.3877   -1.6220 H       1  LIG11       0.0531
     55 H           3.1760   -5.9914   -2.0824 H       1  LIG11       0.0514
     56 H           4.6273   -4.9859   -1.9048 H       1  LIG11       0.0514
     57 H           0.8818   -5.7397    5.0318 H       1  LIG11       0.0628
     58 H           2.9949   -2.6201    7.0988 H       1  LIG11       0.0625
     59 H           4.3811   -2.2196    5.0753 H       1  LIG11       0.0618
     60 H           4.2231   -3.7902    3.1832 H       1  LIG11       0.0621
     61 H          -1.3405   -6.1049    8.9089 H       1  LIG11       0.0547
     62 H          -0.7937   -7.0825   10.3148 H       1  LIG11       0.0547
     63 H          -0.5942   -7.7246    8.6506 H       1  LIG11       0.0547
     64 H           0.2960   -4.7894   -0.6654 H       1  LIG11       0.0332
     65 H          -1.0017   -3.8846    0.1348 H       1  LIG11       0.0332
     66 H          -2.4122   -4.9647    1.8678 H       1  LIG11       0.0620
     67 H          -3.4186   -7.0941    2.6230 H       1  LIG11       0.0618
     68 H          -2.3574   -9.2574    2.0220 H       1  LIG11       0.0618
     69 H          -0.2700   -9.2784    0.6759 H       1  LIG11       0.0618
     70 H           0.7495   -7.1529   -0.0713 H       1  LIG11       0.0620
     71 H           4.0428   -2.9300    1.2087 H       1  LIG11       0.0332
     72 H           3.9558   -1.2859    0.5862 H       1  LIG11       0.0332
     73 H           5.8319   -4.4988    0.4852 H       1  LIG11       0.0620
     74 H           8.1399   -4.6824   -0.3912 H       1  LIG11       0.0618
     75 H           9.1528   -2.7938   -1.6461 H       1  LIG11       0.0618
     76 H           7.8451   -0.7159   -2.0233 H       1  LIG11       0.0618
     77 H           5.5392   -0.5258   -1.1512 H       1  LIG11       0.0620
     78 H           5.0401   -3.4177   -3.6741 H       1  LIG11       0.0628
     79 H           1.9854   -2.4529   -6.5376 H       1  LIG11       0.0625
     80 H           0.3272   -3.7317   -5.2073 H       1  LIG11       0.0618
     81 H           1.0334   -4.8913   -3.1320 H       1  LIG11       0.0621
     82 H           6.4541   -4.2527   -8.4130 H       1  LIG11       0.0547
     83 H           6.7877   -2.8476   -9.4730 H       1  LIG11       0.0547
     84 H           5.1540   -3.0723   -8.7758 H       1  LIG11       0.0547
     85 H           1.4646   -6.6119    7.3176 H       1  LIG11       0.1828
     86 H           6.0735   -3.6706   -5.8639 H       1  LIG11       0.1828
     87 H          -0.0487   -0.8331    1.3486 H       1  LIG11       0.2100
     88 H           0.9341   -0.2993   -0.6855 H       1  LIG11       0.2100
@<TRIPOS>BOND
     1    83    39    1
     2    84    39    1
     3    39    82    1
     4    39    17    1
     5    17    46    1
     6    52    38    2
     7    79    35    1
     8    46    38   am
     9    46    86    1
    10    38    34    1
    11    35    34   ar
    12    35    36   ar
    13    34    33   ar
    14    80    36    1
    15    36    37   ar
    16    33    78    1
    17    33    32   ar
    18    37    32   ar
    19    37    81    1
    20    32     7    1
    21    55     7    1
    22    76    30    1
    23     7    56    1
    24     7    43    1
    25    75    29    1
    26    54     6    1
    27    30    29   ar
    28    30    31   ar
    29    29    28   ar
    30    77    31    1
    31    53     5    1
    32    31    26   ar
    33    43     6    1
    34    43     1   am
    35    88    50    1
    36    64    18    1
    37     6     5    1
    38     6    25    1
    39    50     5    1
    40    28    74    1
    41    28    27   ar
    42     5     4    1
    43    26    27   ar
    44    26    25    1
    45    70    24    1
    46    27    73    1
    47    65    18    1
    48    48     1    2
    49    25    72    1
    50    25    71    1
    51    18    19    1
    52    18     3    1
    53     1    42   am
    54    24    19   ar
    55    24    23   ar
    56    69    23    1
    57    19    20   ar
    58    23    22   ar
    59     4     3    1
    60     4    49    1
    61     4    47    1
    62     3    42    1
    63     3    45    1
    64    49    87    1
    65    42     2    1
    66    20    66    1
    67    20    21   ar
    68    22    68    1
    69    22    21   ar
    70    21    67    1
    71    40     2    1
    72     2    41    1
    73     2     8    1
    74    60    13    1
    75     8    13   ar
    76     8     9   ar
    77    13    12   ar
    78    57     9    1
    79     9    10   ar
    80    59    12    1
    81    12    11   ar
    82    10    11   ar
    83    10    14    1
    84    11    58    1
    85    85    44    1
    86    14    44   am
    87    14    51    2
    88    44    15    1
    89    63    16    1
    90    61    16    1
    91    15    16    1
    92    16    62    1
