@<TRIPOS>MOLECULE
Mol_33
 78 82 0 0 0
SMALL
GASTEIGER
Energy = 0

@<TRIPOS>ATOM
      1 C           2.8654   -5.1715    0.4314 C.2     1  LIG11       0.3060
      2 C           2.1946   -5.5565    2.7499 C.3     1  LIG11       0.0416
      3 C           0.7834   -4.1055    1.2272 C.3     1  LIG11       0.0601
      4 C           0.9734   -2.6055    0.9013 C.3     1  LIG11       0.1016
      5 C           1.5526   -2.3831   -0.5195 C.3     1  LIG11       0.1016
      6 C           2.9781   -2.9686   -0.6654 C.3     1  LIG11       0.0601
      7 C           3.6799   -5.0997   -1.8584 C.3     1  LIG11       0.0416
      8 C           2.4434   -4.5318    3.8701 C.ar    1  LIG11      -0.0300
      9 C           3.6935   -3.9168    4.0002 C.ar    1  LIG11      -0.0568
     10 C           3.9443   -3.0237    5.0482 C.ar    1  LIG11      -0.0585
     11 C           2.9569   -2.7567    6.0019 C.ar    1  LIG11      -0.0504
     12 C           1.7017   -3.3601    5.8653 C.ar    1  LIG11      -0.0585
     13 C           1.4370   -4.2119    4.7898 C.ar    1  LIG11      -0.0568
     14 C           1.4417   -3.4035   -7.0468 C.3     1  LIG11      -0.0397
     15 C           3.2460   -1.8187    7.1818 C.3     1  LIG11      -0.0397
     16 H           3.0418   -6.2582    2.7882 H       1  LIG11       0.0514
     17 H           1.2945   -6.1517    2.9706 H       1  LIG11       0.0514
     18 C          -0.1696   -4.8388    0.2406 C.3     1  LIG11      -0.0064
     19 C          -0.8657   -6.0719    0.8345 C.ar    1  LIG11      -0.0455
     20 C          -0.2796   -7.3404    0.7420 C.ar    1  LIG11      -0.0585
     21 C          -0.9385   -8.4613    1.2559 C.ar    1  LIG11      -0.0615
     22 C          -2.1811   -8.3185    1.8797 C.ar    1  LIG11      -0.0617
     23 C          -2.7690   -7.0546    1.9769 C.ar    1  LIG11      -0.0615
     24 C          -2.1125   -5.9362    1.4554 C.ar    1  LIG11      -0.0585
     25 C           4.0027   -2.3623    0.3401 C.3     1  LIG11      -0.0064
     26 C           5.4558   -2.4393   -0.1652 C.ar    1  LIG11      -0.0455
     27 C           5.9778   -1.4038   -0.9510 C.ar    1  LIG11      -0.0585
     28 C           7.3038   -1.4406   -1.3925 C.ar    1  LIG11      -0.0615
     29 C           8.1218   -2.5224   -1.0564 C.ar    1  LIG11      -0.0617
     30 C           7.6076   -3.5626   -0.2775 C.ar    1  LIG11      -0.0615
     31 C           6.2791   -3.5240    0.1601 C.ar    1  LIG11      -0.0585
     32 C           3.1007   -4.6272   -3.2064 C.ar    1  LIG11      -0.0300
     33 C           1.7196   -4.6079   -3.4251 C.ar    1  LIG11      -0.0568
     34 C           1.1724   -4.1659   -4.6311 C.ar    1  LIG11      -0.0585
     35 C           2.0160   -3.8135   -5.6867 C.ar    1  LIG11      -0.0504
     36 C           3.4005   -3.8447   -5.4870 C.ar    1  LIG11      -0.0585
     37 C           3.9376   -4.2166   -4.2504 C.ar    1  LIG11      -0.0568
     38 H           0.2089   -4.0740    2.1685 H       1  LIG11       0.0531
     39 H           1.6466   -2.1874    1.6685 H       1  LIG11       0.0638
     40 H           0.9148   -2.8659   -1.2773 H       1  LIG11       0.0638
     41 H           3.3079   -2.5787   -1.6442 H       1  LIG11       0.0531
     42 N           2.0106   -4.8781    1.4571 N.am    1  LIG11      -0.2752
     43 N           3.0648   -4.4329   -0.6995 N.am    1  LIG11      -0.2752
     44 H           3.5236   -6.1906   -1.8559 H       1  LIG11       0.0514
     45 H           4.7650   -4.9192   -1.8170 H       1  LIG11       0.0514
     46 H           4.4832   -4.1375    3.2895 H       1  LIG11       0.0621
     47 H           4.9142   -2.5413    5.1225 H       1  LIG11       0.0620
     48 O           3.5193   -6.1970    0.5252 O.2     1  LIG11      -0.2524
     49 O          -0.3192   -1.9783    1.0416 O.3     1  LIG11      -0.3873
     50 O           1.6237   -0.9772   -0.8355 O.3     1  LIG11      -0.3873
     51 H           0.9249   -3.1720    6.5996 H       1  LIG11       0.0620
     52 H           0.4414   -4.6286    4.6800 H       1  LIG11       0.0621
     53 H           0.3506   -3.5422   -7.0911 H       1  LIG11       0.0278
     54 H           1.9031   -4.0172   -7.8346 H       1  LIG11       0.0278
     55 H           1.6725   -2.3437   -7.2288 H       1  LIG11       0.0278
     56 H           2.3152   -1.4156    7.6089 H       1  LIG11       0.0278
     57 H           3.8709   -0.9727    6.8584 H       1  LIG11       0.0278
     58 H           3.7794   -2.3812    7.9626 H       1  LIG11       0.0278
     59 H           0.4158   -5.2002   -0.6023 H       1  LIG11       0.0332
     60 H          -0.9445   -4.1596   -0.1490 H       1  LIG11       0.0332
     61 H           0.6887   -7.4638    0.2661 H       1  LIG11       0.0620
     62 H          -0.4858   -9.4446    1.1698 H       1  LIG11       0.0618
     63 H          -2.6888   -9.1872    2.2877 H       1  LIG11       0.0618
     64 H          -3.7367   -6.9413    2.4562 H       1  LIG11       0.0618
     65 H          -2.5804   -4.9596    1.5310 H       1  LIG11       0.0620
     66 H           3.9329   -2.8733    1.3080 H       1  LIG11       0.0332
     67 H           3.7739   -1.2999    0.5176 H       1  LIG11       0.0332
     68 H           5.3542   -0.5577   -1.2219 H       1  LIG11       0.0620
     69 H           7.6999   -0.6288   -1.9955 H       1  LIG11       0.0618
     70 H           9.1521   -2.5530   -1.3994 H       1  LIG11       0.0618
     71 H           8.2441   -4.4015   -0.0121 H       1  LIG11       0.0618
     72 H           5.8909   -4.3431    0.7573 H       1  LIG11       0.0620
     73 H           1.0441   -4.9468   -2.6631 H       1  LIG11       0.0621
     74 H           0.0934   -4.1060   -4.7399 H       1  LIG11       0.0620
     75 H           4.0657   -3.5787   -6.3016 H       1  LIG11       0.0620
     76 H           5.0128   -4.1893   -4.1091 H       1  LIG11       0.0621
     77 H          -0.2857   -1.0275    1.0734 H       1  LIG11       0.2100
     78 H           0.7711   -0.5662   -0.9382 H       1  LIG11       0.2100
@<TRIPOS>BOND
     1    54    14    1
     2    55    14    1
     3    53    14    1
     4    14    35    1
     5    75    36    1
     6    35    36   ar
     7    35    34   ar
     8    36    37   ar
     9    74    34    1
    10    34    33   ar
    11    37    76    1
    12    37    32   ar
    13    33    32   ar
    14    33    73    1
    15    32     7    1
    16    69    28    1
    17     7    44    1
    18     7    45    1
    19     7    43    1
    20    41     6    1
    21    70    29    1
    22    28    29   ar
    23    28    27   ar
    24    40     5    1
    25    68    27    1
    26    29    30   ar
    27    27    26   ar
    28    78    50    1
    29    50     5    1
    30    43     6    1
    31    43     1   am
    32     6     5    1
    33     6    25    1
    34    59    18    1
    35     5     4    1
    36    30    71    1
    37    30    31   ar
    38    26    31   ar
    39    26    25    1
    40    60    18    1
    41    31    72    1
    42    18    19    1
    43    18     3    1
    44    61    20    1
    45    25    67    1
    46    25    66    1
    47     1    48    2
    48     1    42   am
    49    20    19   ar
    50    20    21   ar
    51    19    24   ar
    52     4    49    1
    53     4     3    1
    54     4    39    1
    55    49    77    1
    56    62    21    1
    57     3    42    1
    58     3    38    1
    59    21    22   ar
    60    24    65    1
    61    24    23   ar
    62    42     2    1
    63    22    23   ar
    64    22    63    1
    65    23    64    1
    66     2    16    1
    67     2    17    1
    68     2     8    1
    69    46     9    1
    70     8     9   ar
    71     8    13   ar
    72     9    10   ar
    73    52    13    1
    74    13    12   ar
    75    10    47    1
    76    10    11   ar
    77    12    11   ar
    78    12    51    1
    79    11    15    1
    80    57    15    1
    81    15    56    1
    82    15    58    1
