@<TRIPOS>MOLECULE
Mol_20
 84 88 0 0 0
SMALL
GASTEIGER
Energy = 0

@<TRIPOS>ATOM
      1 C           3.0227   -4.3850   -0.1784 C.2     1  LIG11       0.3054
      2 C           2.3695   -4.9785    2.0987 C.3     1  LIG11       0.0194
      3 C           0.9064   -3.4768    0.6777 C.3     1  LIG11       0.0598
      4 C           1.0090   -1.9470    0.5025 C.3     1  LIG11       0.1016
      5 C           1.6088   -1.5825   -0.8794 C.3     1  LIG11       0.1016
      6 C           3.0730   -2.0670   -1.0341 C.3     1  LIG11       0.0598
      7 C           4.0011   -4.0054   -2.3935 C.3     1  LIG11       0.0194
      8 C           2.4216   -4.1799    3.4491 C.3     1  LIG11      -0.0251
      9 C           3.8317   -3.5740    3.7066 C.3     1  LIG11      -0.0488
     10 C           3.2582   -5.4737   -4.3744 C.3     1  LIG11      -0.0488
     11 C           2.3784   -5.5878   -5.6473 C.3     1  LIG11      -0.0528
     12 C           3.3087   -2.9474   -4.6500 C.3     1  LIG11      -0.0488
     13 C           2.4116   -3.0677   -5.9076 C.3     1  LIG11      -0.0528
     14 C           2.0204   -5.1512    4.6027 C.3     1  LIG11      -0.0488
     15 C           3.9347   -2.9628    5.1249 C.3     1  LIG11      -0.0528
     16 C           2.6681   -4.4177   -6.6204 C.3     1  LIG11      -0.0530
     17 C           2.3550   -4.6968    6.0529 C.3     1  LIG11      -0.0528
     18 C           0.0150   -4.1814   -0.3882 C.3     1  LIG11      -0.0064
     19 C          -0.4938   -5.5482    0.1016 C.ar    1  LIG11      -0.0455
     20 C           0.1202   -6.7343   -0.3144 C.ar    1  LIG11      -0.0585
     21 C          -0.3770   -7.9738    0.1048 C.ar    1  LIG11      -0.0615
     22 C          -1.4777   -8.0345    0.9617 C.ar    1  LIG11      -0.0617
     23 C          -2.0840   -6.8519    1.3975 C.ar    1  LIG11      -0.0615
     24 C          -1.5935   -5.6166    0.9678 C.ar    1  LIG11      -0.0585
     25 C           4.0515   -1.4815    0.0184 C.3     1  LIG11      -0.0064
     26 C           5.5226   -1.7984   -0.2949 C.ar    1  LIG11      -0.0455
     27 C           6.2761   -0.9149   -1.0772 C.ar    1  LIG11      -0.0585
     28 C           7.6199   -1.1809   -1.3523 C.ar    1  LIG11      -0.0615
     29 C           8.2229   -2.3367   -0.8467 C.ar    1  LIG11      -0.0617
     30 C           7.4775   -3.2227   -0.0656 C.ar    1  LIG11      -0.0615
     31 C           6.1310   -2.9562    0.2048 C.ar    1  LIG11      -0.0585
     32 C           3.0654   -4.1117   -3.6442 C.3     1  LIG11      -0.0251
     33 C           3.7773   -4.0953    6.1650 C.3     1  LIG11      -0.0530
     34 H           3.2816   -5.5959    2.0765 H       1  LIG11       0.0468
     35 H           1.5300   -5.6917    2.1219 H       1  LIG11       0.0468
     36 H           0.3080   -3.5750    1.5989 H       1  LIG11       0.0530
     37 H           1.6320   -1.5612    1.3253 H       1  LIG11       0.0638
     38 H           1.0269   -2.0469   -1.6930 H       1  LIG11       0.0638
     39 H           3.3991   -1.5607   -1.9543 H       1  LIG11       0.0530
     40 H           4.4920   -4.9760   -2.2272 H       1  LIG11       0.0468
     41 H           4.8425   -3.3288   -2.6104 H       1  LIG11       0.0468
     42 N           2.1769   -4.1813    0.8748 N.am    1  LIG11      -0.2793
     43 N           3.2842   -3.5108   -1.1989 N.am    1  LIG11      -0.2793
     44 H           1.7089   -3.3385    3.4416 H       1  LIG11       0.0316
     45 H           4.0379   -2.7667    2.9988 H       1  LIG11       0.0268
     46 H           4.6185   -4.3345    3.5818 H       1  LIG11       0.0268
     47 H           2.9961   -6.3002   -3.6912 H       1  LIG11       0.0268
     48 O           3.5977   -5.4607   -0.2000 O.2     1  LIG11      -0.2524
     49 O          -0.3139   -1.3991    0.6817 O.3     1  LIG11      -0.3873
     50 O           1.5785   -0.1560   -1.0839 O.3     1  LIG11      -0.3873
     51 H           4.3168   -5.5855   -4.6601 H       1  LIG11       0.0268
     52 H           1.3126   -5.5780   -5.3654 H       1  LIG11       0.0265
     53 H           2.5886   -6.5445   -6.1554 H       1  LIG11       0.0265
     54 H           4.3645   -2.9502   -4.9661 H       1  LIG11       0.0268
     55 H           3.0932   -1.9749   -4.1844 H       1  LIG11       0.0268
     56 H           2.6358   -2.2380   -6.5999 H       1  LIG11       0.0265
     57 H           1.3503   -2.9933   -5.6175 H       1  LIG11       0.0265
     58 H           2.5387   -6.1071    4.4333 H       1  LIG11       0.0268
     59 H           0.9329   -5.3342    4.5394 H       1  LIG11       0.0268
     60 H           3.1522   -2.1988    5.2704 H       1  LIG11       0.0265
     61 H           4.9166   -2.4760    5.2510 H       1  LIG11       0.0265
     62 H           2.0168   -4.4977   -7.5069 H       1  LIG11       0.0265
     63 H           3.7161   -4.4648   -6.9604 H       1  LIG11       0.0265
     64 H           2.2965   -5.5760    6.7191 H       1  LIG11       0.0265
     65 H           1.6205   -3.9582    6.4133 H       1  LIG11       0.0265
     66 H           0.5642   -4.3258   -1.3278 H       1  LIG11       0.0332
     67 H          -0.8683   -3.5620   -0.6118 H       1  LIG11       0.0332
     68 H           0.9869   -6.7025   -0.9673 H       1  LIG11       0.0620
     69 H           0.0936   -8.8905   -0.2374 H       1  LIG11       0.0618
     70 H          -1.8625   -8.9958    1.2893 H       1  LIG11       0.0618
     71 H          -2.9367   -6.8965    2.0687 H       1  LIG11       0.0618
     72 H          -2.0747   -4.7057    1.3100 H       1  LIG11       0.0620
     73 H           3.8341   -1.9198    0.9883 H       1  LIG11       0.0332
     74 H           3.9193   -0.3914    0.1102 H       1  LIG11       0.0332
     75 H           5.8186   -0.0138   -1.4725 H       1  LIG11       0.0620
     76 H           8.1976   -0.4895   -1.9580 H       1  LIG11       0.0618
     77 H           9.2672   -2.5439   -1.0606 H       1  LIG11       0.0618
     78 H           7.9449   -4.1186    0.3325 H       1  LIG11       0.0618
     79 H           5.5654   -3.6580    0.8097 H       1  LIG11       0.0620
     80 H           2.0173   -4.0653   -3.3067 H       1  LIG11       0.0316
     81 H           4.5355   -4.8752    5.9827 H       1  LIG11       0.0265
     82 H           3.9388   -3.6948    7.1800 H       1  LIG11       0.0265
     83 H          -0.3235   -0.4572    0.8237 H       1  LIG11       0.2100
     84 H           0.6952    0.1912   -1.1655 H       1  LIG11       0.2100
@<TRIPOS>BOND
     1    62    16    1
     2    63    16    1
     3    16    13    1
     4    16    11    1
     5    56    13    1
     6    53    11    1
     7    13    57    1
     8    13    12    1
     9    11    52    1
    10    11    10    1
    11    54    12    1
    12    51    10    1
    13    12    55    1
    14    12    32    1
    15    10    47    1
    16    10    32    1
    17    32    80    1
    18    32     7    1
    19    41     7    1
    20     7    40    1
    21     7    43    1
    22    76    28    1
    23    39     6    1
    24    38     5    1
    25    75    27    1
    26    28    27   ar
    27    28    29   ar
    28    66    18    1
    29    43     6    1
    30    43     1   am
    31    84    50    1
    32    50     5    1
    33    27    26   ar
    34    77    29    1
    35     6     5    1
    36     6    25    1
    37    68    20    1
    38     5     4    1
    39    29    30   ar
    40    67    18    1
    41    18    19    1
    42    18     3    1
    43    20    19   ar
    44    20    21   ar
    45    26    25    1
    46    26    31   ar
    47    69    21    1
    48    48     1    2
    49     1    42   am
    50    30    31   ar
    51    30    78    1
    52    25    74    1
    53    25    73    1
    54    19    24   ar
    55    21    22   ar
    56    31    79    1
    57     4     3    1
    58     4    49    1
    59     4    37    1
    60     3    42    1
    61     3    36    1
    62    49    83    1
    63    42     2    1
    64    22    70    1
    65    22    23   ar
    66    24    72    1
    67    24    23   ar
    68    23    71    1
    69    34     2    1
    70     2    35    1
    71     2     8    1
    72    45     9    1
    73    44     8    1
    74     8     9    1
    75     8    14    1
    76    46     9    1
    77     9    15    1
    78    58    14    1
    79    59    14    1
    80    14    17    1
    81    15    61    1
    82    15    60    1
    83    15    33    1
    84    81    33    1
    85    17    33    1
    86    17    65    1
    87    17    64    1
    88    33    82    1
