@<TRIPOS>MOLECULE
Mol_78
 98 104 0 0 0
SMALL
GASTEIGER
Energy = 0

@<TRIPOS>ATOM
      1 C           2.9394   -4.9075    0.0468 C.2     1  LIG11       0.3060
      2 C           2.3243   -5.6050    2.2959 C.3     1  LIG11       0.0416
      3 C           0.9077   -3.8912    1.0529 C.3     1  LIG11       0.0601
      4 C           1.1039   -2.3711    0.8086 C.3     1  LIG11       0.1016
      5 C           1.6202   -2.0567   -0.6200 C.3     1  LIG11       0.1016
      6 C           3.0364   -2.6169   -0.8770 C.3     1  LIG11       0.0601
      7 C           3.7426   -4.6415   -2.2349 C.3     1  LIG11       0.0416
      8 C           2.5661   -4.8375    3.6064 C.ar    1  LIG11      -0.0293
      9 C           1.7413   -5.0444    4.7156 C.ar    1  LIG11      -0.0449
     10 C           2.0187   -4.4162    5.9361 C.ar    1  LIG11       0.0374
     11 C           3.0160   -3.4400    6.0077 C.ar    1  LIG11      -0.0496
     12 C           3.8280   -3.2042    4.8967 C.ar    1  LIG11      -0.0607
     13 C           3.6352   -3.9418    3.7242 C.ar    1  LIG11      -0.0570
     14 C           1.2669   -4.8159    7.1849 C.2     1  LIG11       0.2493
     15 C           5.8784   -3.5669   -8.3958 C.ar    1  LIG11       0.1251
     16 N           6.9589   -4.3725   -8.3804 N.ar    1  LIG11      -0.2401
     17 C           7.7964   -4.4622   -9.4304 C.ar    1  LIG11       0.0297
     18 C          -0.1111   -4.5166    0.0557 C.3     1  LIG11      -0.0064
     19 C          -0.7768   -5.8059    0.5447 C.ar    1  LIG11      -0.0455
     20 C          -1.9042   -5.7330    1.3707 C.ar    1  LIG11      -0.0585
     21 C          -2.5362   -6.9017    1.8034 C.ar    1  LIG11      -0.0615
     22 C          -2.0409   -8.1482    1.4112 C.ar    1  LIG11      -0.0617
     23 C          -0.9205   -8.2244    0.5790 C.ar    1  LIG11      -0.0615
     24 C          -0.2866   -7.0555    0.1494 C.ar    1  LIG11      -0.0585
     25 C           4.0964   -2.0476    0.1109 C.3     1  LIG11      -0.0064
     26 C           5.5445   -2.2630   -0.3598 C.ar    1  LIG11      -0.0455
     27 C           6.1726   -3.5022   -0.1863 C.ar    1  LIG11      -0.0585
     28 C           7.4850   -3.7018   -0.6249 C.ar    1  LIG11      -0.0615
     29 C           8.1924   -2.6518   -1.2162 C.ar    1  LIG11      -0.0617
     30 C           7.5799   -1.4060   -1.3740 C.ar    1  LIG11      -0.0615
     31 C           6.2602   -1.2160   -0.9536 C.ar    1  LIG11      -0.0585
     32 C           3.0180   -4.2484   -3.5337 C.ar    1  LIG11      -0.0293
     33 C           3.7234   -3.6780   -4.5966 C.ar    1  LIG11      -0.0449
     34 C           3.0814   -3.4186   -5.8133 C.ar    1  LIG11       0.0374
     35 C           1.6956   -3.5563   -5.9239 C.ar    1  LIG11      -0.0496
     36 C           0.9737   -4.0864   -4.8544 C.ar    1  LIG11      -0.0607
     37 C           1.6476   -4.4791   -3.6952 C.ar    1  LIG11      -0.0570
     38 C           3.8855   -3.0239   -7.0294 C.2     1  LIG11       0.2493
     39 C           7.5972   -3.6514  -10.5497 C.ar    1  LIG11      -0.0435
     40 C           6.5200   -2.7609  -10.5664 C.ar    1  LIG11      -0.0571
     41 C           5.6443   -2.7080   -9.4785 C.ar    1  LIG11      -0.0215
     42 N           2.1261   -4.7194    1.1316 N.am    1  LIG11      -0.2752
     43 N           3.1325   -4.0741   -1.0184 N.am    1  LIG11      -0.2752
     44 N           1.0498   -6.1343    7.3883 N.am    1  LIG11      -0.2664
     45 C           0.4226   -6.7217    8.5177 C.ar    1  LIG11       0.1251
     46 N           5.0358   -3.6947   -7.2609 N.am    1  LIG11      -0.2664
     47 N           0.5939   -8.0547    8.6215 N.ar    1  LIG11      -0.2401
     48 O           3.5736   -5.9491    0.0179 O.2     1  LIG11      -0.2524
     49 O          -0.0943   -1.6101    1.0718 O.3     1  LIG11      -0.3873
     50 O           1.6613   -0.6330   -0.8435 O.3     1  LIG11      -0.3873
     51 O           0.9300   -3.9250    7.9463 O.2     1  LIG11      -0.2698
     52 O           3.4234   -2.1425   -7.7328 O.2     1  LIG11      -0.2698
     53 C           0.0651   -8.7657    9.6350 C.ar    1  LIG11       0.0297
     54 C          -0.6864   -8.1207   10.6195 C.ar    1  LIG11      -0.0435
     55 C          -0.8804   -6.7387   10.5366 C.ar    1  LIG11      -0.0571
     56 C          -0.3306   -6.0213    9.4699 C.ar    1  LIG11      -0.0215
     57 H           3.2001   -6.2708    2.2370 H       1  LIG11       0.0514
     58 H           1.4454   -6.2630    2.3761 H       1  LIG11       0.0514
     59 H           0.4037   -3.9306    2.0342 H       1  LIG11       0.0531
     60 H           1.8008   -2.0019    1.5756 H       1  LIG11       0.0638
     61 H           0.9533   -2.4908   -1.3825 H       1  LIG11       0.0638
     62 H           3.3123   -2.1649   -1.8459 H       1  LIG11       0.0531
     63 H           3.7440   -5.7420   -2.2692 H       1  LIG11       0.0514
     64 H           4.7934   -4.3201   -2.2740 H       1  LIG11       0.0514
     65 H           0.8845   -5.7049    4.6352 H       1  LIG11       0.0628
     66 H           3.1688   -2.8832    6.9277 H       1  LIG11       0.0625
     67 H           4.6144   -2.4569    4.9509 H       1  LIG11       0.0618
     68 H           4.3334   -3.8262    2.9073 H       1  LIG11       0.0621
     69 H           8.6195   -5.1676   -9.3927 H       1  LIG11       0.0830
     70 H           8.2735   -3.7149  -11.3952 H       1  LIG11       0.0633
     71 H           0.4153   -4.7411   -0.8679 H       1  LIG11       0.0332
     72 H          -0.9373   -3.8422   -0.2030 H       1  LIG11       0.0332
     73 H          -2.2987   -4.7679    1.6741 H       1  LIG11       0.0620
     74 H          -3.4122   -6.8403    2.4422 H       1  LIG11       0.0618
     75 H          -2.5269   -9.0568    1.7524 H       1  LIG11       0.0618
     76 H          -0.5423   -9.1921    0.2643 H       1  LIG11       0.0618
     77 H           0.5836   -7.1249   -0.4965 H       1  LIG11       0.0620
     78 H           3.9978   -2.5333    1.0837 H       1  LIG11       0.0332
     79 H           3.9284   -0.9704    0.2688 H       1  LIG11       0.0332
     80 H           5.6445   -4.3207    0.2905 H       1  LIG11       0.0620
     81 H           7.9562   -4.6728   -0.5056 H       1  LIG11       0.0618
     82 H           9.2144   -2.8029   -1.5509 H       1  LIG11       0.0618
     83 H           8.1307   -0.5847   -1.8228 H       1  LIG11       0.0618
     84 H           5.7975   -0.2437   -1.0893 H       1  LIG11       0.0620
     85 H           4.7769   -3.4443   -4.4840 H       1  LIG11       0.0628
     86 H           1.1875   -3.2721   -6.8404 H       1  LIG11       0.0625
     87 H          -0.1034   -4.2047   -4.9299 H       1  LIG11       0.0618
     88 H           1.0929   -4.9847   -2.9255 H       1  LIG11       0.0621
     89 H           6.3635   -2.1138  -11.4239 H       1  LIG11       0.0619
     90 H           4.8203   -2.0101   -9.5170 H       1  LIG11       0.0652
     91 H           1.4263   -6.7821    6.7291 H       1  LIG11       0.1566
     92 H           5.3083   -4.4047   -6.6145 H       1  LIG11       0.1566
     93 H           0.2308   -9.8370    9.6731 H       1  LIG11       0.0830
     94 H          -0.7796   -1.6852    0.4170 H       1  LIG11       0.2100
     95 H           0.8039   -0.2200   -0.7989 H       1  LIG11       0.2100
     96 H          -1.1141   -8.6906   11.4375 H       1  LIG11       0.0633
     97 H          -1.4591   -6.2262   11.2990 H       1  LIG11       0.0619
     98 H          -0.5107   -4.9566    9.4110 H       1  LIG11       0.0652
@<TRIPOS>BOND
     1    89    40    1
     2    70    39    1
     3    40    39   ar
     4    40    41   ar
     5    39    17   ar
     6    90    41    1
     7    41    15   ar
     8    17    69    1
     9    17    16   ar
    10    15    16   ar
    11    15    46    1
    12    52    38    2
    13    46    38   am
    14    46    92    1
    15    38    34    1
    16    86    35    1
    17    35    34   ar
    18    35    36   ar
    19    34    33   ar
    20    87    36    1
    21    36    37   ar
    22    33    85    1
    23    33    32   ar
    24    37    32   ar
    25    37    88    1
    26    32     7    1
    27    64     7    1
    28    63     7    1
    29     7    43    1
    30    62     6    1
    31    83    30    1
    32    82    29    1
    33    61     5    1
    34    30    29   ar
    35    30    31   ar
    36    29    28   ar
    37    84    31    1
    38    43     6    1
    39    43     1   am
    40    31    26   ar
    41     6     5    1
    42     6    25    1
    43    71    18    1
    44    50    95    1
    45    50     5    1
    46    28    81    1
    47    28    27   ar
    48     5     4    1
    49    77    24    1
    50    26    27   ar
    51    26    25    1
    52    72    18    1
    53    27    80    1
    54    48     1    2
    55     1    42   am
    56    18    19    1
    57    18     3    1
    58    25    79    1
    59    25    78    1
    60    24    19   ar
    61    24    23   ar
    62    76    23    1
    63    94    49    1
    64    19    20   ar
    65    23    22   ar
    66     4     3    1
    67     4    49    1
    68     4    60    1
    69     3    42    1
    70     3    59    1
    71    42     2    1
    72    20    73    1
    73    20    21   ar
    74    22    75    1
    75    22    21   ar
    76    21    74    1
    77    57     2    1
    78     2    58    1
    79     2     8    1
    80    68    13    1
    81     8    13   ar
    82     8     9   ar
    83    13    12   ar
    84    65     9    1
    85     9    10   ar
    86    12    67    1
    87    12    11   ar
    88    10    11   ar
    89    10    14    1
    90    11    66    1
    91    91    44    1
    92    14    44   am
    93    14    51    2
    94    44    45    1
    95    45    47   ar
    96    45    56   ar
    97    47    53   ar
    98    98    56    1
    99    56    55   ar
   100    53    93    1
   101    53    54   ar
   102    55    54   ar
   103    55    97    1
   104    54    96    1
