@<TRIPOS>MOLECULE
Mol_27
 72 76 0 0 0
SMALL
GASTEIGER
Energy = 0

@<TRIPOS>ATOM
      1 C           2.7953   -4.9558    0.2295 C.2     1  LIG11       0.3060
      2 C           3.5374   -4.8145   -2.0849 C.3     1  LIG11       0.0416
      3 C           2.9366   -2.7116   -0.7902 C.3     1  LIG11       0.0601
      4 C           1.5253   -2.1058   -0.5980 C.3     1  LIG11       0.1016
      5 C           0.9837   -2.3594    0.8338 C.3     1  LIG11       0.1016
      6 C           0.7823   -3.8654    1.1272 C.3     1  LIG11       0.0601
      7 C           2.2189   -5.3913    2.5649 C.3     1  LIG11       0.0416
      8 C           2.7881   -4.3596   -3.3495 C.ar    1  LIG11      -0.0299
      9 C           1.4898   -4.8197   -3.6004 C.ar    1  LIG11      -0.0544
     10 C           0.8059   -4.4311   -4.7564 C.ar    1  LIG11      -0.0261
     11 C           1.4332   -3.6083   -5.6938 C.ar    1  LIG11       0.1234
     12 C           2.7261   -3.1400   -5.4497 C.ar    1  LIG11      -0.0261
     13 C           3.3919   -3.4968   -4.2730 C.ar    1  LIG11      -0.0544
     14 F           3.2112   -1.8379    6.8923 F       1  LIG11      -0.2055
     15 F           0.8021   -3.2734   -6.8166 F       1  LIG11      -0.2055
     16 H           3.4566   -5.9135   -2.0835 H       1  LIG11       0.0514
     17 H           4.6080   -4.5720   -2.1632 H       1  LIG11       0.0514
     18 C           3.9931   -2.1365    0.2000 C.3     1  LIG11      -0.0064
     19 C           5.4376   -2.2980   -0.3066 C.ar    1  LIG11      -0.0455
     20 C           6.0904   -1.2473   -0.9641 C.ar    1  LIG11      -0.0585
     21 C           7.4177   -1.3856   -1.3844 C.ar    1  LIG11      -0.0615
     22 C           8.1010   -2.5828   -1.1590 C.ar    1  LIG11      -0.0617
     23 C           7.4507   -3.6413   -0.5181 C.ar    1  LIG11      -0.0615
     24 C           6.1248   -3.4998   -0.0990 C.ar    1  LIG11      -0.0585
     25 C          -0.2027   -4.5580    0.1394 C.3     1  LIG11      -0.0064
     26 C          -0.7241   -5.9067    0.6634 C.ar    1  LIG11      -0.0455
     27 C          -0.0833   -7.1050    0.3229 C.ar    1  LIG11      -0.0585
     28 C          -0.5858   -8.3298    0.7719 C.ar    1  LIG11      -0.0615
     29 C          -1.7279   -8.3667    1.5773 C.ar    1  LIG11      -0.0617
     30 C          -2.3652   -7.1749    1.9304 C.ar    1  LIG11      -0.0615
     31 C          -1.8623   -5.9511    1.4767 C.ar    1  LIG11      -0.0585
     32 C           2.4771   -4.4385    3.7482 C.ar    1  LIG11      -0.0299
     33 C           1.4996   -4.2066    4.7250 C.ar    1  LIG11      -0.0544
     34 C           1.7551   -3.3462    5.7984 C.ar    1  LIG11      -0.0261
     35 C           2.9800   -2.6818    5.8886 C.ar    1  LIG11       0.1234
     36 C           3.9615   -2.9082    4.9214 C.ar    1  LIG11      -0.0261
     37 C           3.7185   -3.8017    3.8729 C.ar    1  LIG11      -0.0544
     38 H           3.2515   -2.2978   -1.7635 H       1  LIG11       0.0531
     39 H           0.8659   -2.5517   -1.3616 H       1  LIG11       0.0638
     40 H           1.6863   -1.9750    1.5917 H       1  LIG11       0.0638
     41 H           0.2392   -3.8610    2.0884 H       1  LIG11       0.0531
     42 N           2.9923   -4.1772   -0.8750 N.am    1  LIG11      -0.2752
     43 N           2.0028   -4.6612    1.3015 N.am    1  LIG11      -0.2752
     44 H           3.0848   -6.0710    2.5509 H       1  LIG11       0.0514
     45 H           1.3373   -6.0201    2.7646 H       1  LIG11       0.0514
     46 H           1.0056   -5.4918   -2.9024 H       1  LIG11       0.0622
     47 H          -0.2102   -4.7687   -4.9343 H       1  LIG11       0.0646
     48 O           3.3838   -6.0238    0.2554 O.2     1  LIG11      -0.2524
     49 O           1.6139   -0.6930   -0.8757 O.3     1  LIG11      -0.3873
     50 O          -0.2862   -1.7056    1.0386 O.3     1  LIG11      -0.3873
     51 H           3.2093   -2.4993   -6.1799 H       1  LIG11       0.0646
     52 H           4.3844   -3.0996   -4.0851 H       1  LIG11       0.0622
     53 H           3.9168   -2.6364    1.1742 H       1  LIG11       0.0332
     54 H           3.8087   -1.0632    0.3661 H       1  LIG11       0.0332
     55 H           5.5736   -0.3113   -1.1512 H       1  LIG11       0.0620
     56 H           7.9198   -0.5626   -1.8850 H       1  LIG11       0.0618
     57 H           9.1331   -2.6907   -1.4800 H       1  LIG11       0.0618
     58 H           7.9783   -4.5743   -0.3449 H       1  LIG11       0.0618
     59 H           5.6295   -4.3306    0.3927 H       1  LIG11       0.0620
     60 H           0.2935   -4.7403   -0.8188 H       1  LIG11       0.0332
     61 H          -1.0701   -3.9085   -0.0598 H       1  LIG11       0.0332
     62 H           0.8081   -7.0921   -0.2962 H       1  LIG11       0.0620
     63 H          -0.0904   -9.2556    0.4949 H       1  LIG11       0.0618
     64 H          -2.1184   -9.3181    1.9269 H       1  LIG11       0.0618
     65 H          -3.2523   -7.2001    2.5563 H       1  LIG11       0.0618
     66 H          -2.3668   -5.0325    1.7586 H       1  LIG11       0.0620
     67 H           0.5339   -4.6974    4.6622 H       1  LIG11       0.0622
     68 H           1.0060   -3.1891    6.5680 H       1  LIG11       0.0646
     69 H           4.9114   -2.3882    4.9931 H       1  LIG11       0.0646
     70 H           4.5071   -4.0052    3.1560 H       1  LIG11       0.0622
     71 H           0.7666   -0.2641   -0.9449 H       1  LIG11       0.2100
     72 H          -0.2246   -0.7571    1.0988 H       1  LIG11       0.2100
@<TRIPOS>BOND
     1    15    11    1
     2    51    12    1
     3    11    12   ar
     4    11    10   ar
     5    12    13   ar
     6    47    10    1
     7    10     9   ar
     8    13    52    1
     9    13     8   ar
    10     9     8   ar
    11     9    46    1
    12     8     2    1
    13    17     2    1
    14     2    16    1
    15     2    42    1
    16    56    21    1
    17    38     3    1
    18    57    22    1
    19    21    22   ar
    20    21    20   ar
    21    39     4    1
    22    22    23   ar
    23    55    20    1
    24    20    19   ar
    25    71    49    1
    26    49     4    1
    27    42     3    1
    28    42     1   am
    29    60    25    1
    30     3     4    1
    31     3    18    1
    32     4     5    1
    33    23    58    1
    34    23    24   ar
    35    19    24   ar
    36    19    18    1
    37    62    27    1
    38    24    59    1
    39    61    25    1
    40    25    26    1
    41    25     6    1
    42    18    54    1
    43    18    53    1
    44     1    48    2
    45     1    43   am
    46    27    26   ar
    47    27    28   ar
    48    63    28    1
    49    26    31   ar
    50    28    29   ar
    51     5    50    1
    52     5     6    1
    53     5    40    1
    54    50    72    1
    55     6    43    1
    56     6    41    1
    57    43     7    1
    58    31    66    1
    59    31    30   ar
    60    29    64    1
    61    29    30   ar
    62    30    65    1
    63    44     7    1
    64     7    45    1
    65     7    32    1
    66    70    37    1
    67    32    37   ar
    68    32    33   ar
    69    37    36   ar
    70    67    33    1
    71    33    34   ar
    72    36    69    1
    73    36    35   ar
    74    34    35   ar
    75    34    68    1
    76    35    14    1
