@<TRIPOS>MOLECULE
Mol_101
 93 98 0 0 0
SMALL
GASTEIGER
Energy = 0

@<TRIPOS>ATOM
      1 C           2.8907   -5.0781    0.1351 C.2     1  LIG11       0.3060
      2 C           3.6226   -4.9059   -2.1697 C.3     1  LIG11       0.0416
      3 C           3.0039   -2.8225   -0.8488 C.3     1  LIG11       0.0601
      4 C           1.6172   -2.2013   -0.5664 C.3     1  LIG11       0.1016
      5 C           1.0946   -2.5128    0.8568 C.3     1  LIG11       0.1016
      6 C           0.8636   -4.0272    1.0928 C.3     1  LIG11       0.0601
      7 C           2.3063   -5.6599    2.4104 C.3     1  LIG11       0.0418
      8 C           2.9921   -4.4111   -3.4856 C.ar    1  LIG11      -0.0293
      9 C           3.8001   -3.9657   -4.5353 C.ar    1  LIG11      -0.0449
     10 C           3.2401   -3.5945   -5.7663 C.ar    1  LIG11       0.0374
     11 C           1.8497   -3.5479   -5.9094 C.ar    1  LIG11      -0.0496
     12 C           1.0288   -3.9449   -4.8548 C.ar    1  LIG11      -0.0607
     13 C           1.6056   -4.4105   -3.6720 C.ar    1  LIG11      -0.0570
     14 C           4.1036   -3.2505   -6.9599 C.2     1  LIG11       0.2493
     15 C           6.1979   -3.6206   -8.1893 C.ar    1  LIG11       0.1251
     16 N           7.1004   -4.6008   -8.3913 N.ar    1  LIG11      -0.2401
     17 C           4.1133   -2.2917    0.1072 C.3     1  LIG11      -0.0064
     18 C           5.5230   -2.5211   -0.4638 C.ar    1  LIG11      -0.0455
     19 C           6.1410   -1.5405   -1.2502 C.ar    1  LIG11      -0.0585
     20 C           7.4323   -1.7394   -1.7487 C.ar    1  LIG11      -0.0615
     21 C           8.1134   -2.9277   -1.4719 C.ar    1  LIG11      -0.0617
     22 C           7.4988   -3.9146   -0.6967 C.ar    1  LIG11      -0.0615
     23 C           6.2103   -3.7102   -0.1942 C.ar    1  LIG11      -0.0585
     24 C          -0.1214   -4.6767    0.0814 C.3     1  LIG11      -0.0064
     25 C          -0.7944   -5.9598    0.5816 C.ar    1  LIG11      -0.0455
     26 C          -1.9100   -5.8717    1.4216 C.ar    1  LIG11      -0.0585
     27 C          -2.5676   -7.0303    1.8438 C.ar    1  LIG11      -0.0615
     28 C          -2.1065   -8.2839    1.4329 C.ar    1  LIG11      -0.0617
     29 C          -0.9874   -8.3768    0.6007 C.ar    1  LIG11      -0.0615
     30 C          -0.3263   -7.2179    0.1845 C.ar    1  LIG11      -0.0585
     31 C           2.0881   -4.8265    3.6784 C.ar    1  LIG11      -0.0231
     32 C           0.9942   -5.0758    4.5108 C.ar    1  LIG11      -0.0150
     33 C           0.8133   -4.3432    5.6839 C.ar    1  LIG11       0.1239
     34 C           1.7105   -3.3228    6.0171 C.ar    1  LIG11       0.0218
     35 C           2.7957   -3.0414    5.1736 C.ar    1  LIG11       0.1239
     36 C           2.9795   -3.8041    4.0170 C.ar    1  LIG11      -0.0150
     37 O          -0.2781   -4.6501    6.5000 O.3     1  LIG11      -0.4950
     38 C          -0.0068   -5.0321    7.8575 C.3     1  LIG11       0.0788
     39 O           3.7144   -2.0173    5.4458 O.3     1  LIG11      -0.4950
     40 C           3.5972   -1.1943    6.6160 C.3     1  LIG11       0.0788
     41 N           3.0562   -4.2847   -0.9621 N.am    1  LIG11      -0.2752
     42 N           2.0859   -4.8397    1.2117 N.am    1  LIG11      -0.2752
     43 N           5.3155   -3.8320   -7.0995 N.am    1  LIG11      -0.2664
     44 C           7.9878   -4.5507   -9.4028 C.ar    1  LIG11       0.0297
     45 H           3.4808   -5.9980   -2.1997 H       1  LIG11       0.0514
     46 H           4.7065   -4.7192   -2.1650 H       1  LIG11       0.0514
     47 O           3.5313   -6.1167    0.1508 O.2     1  LIG11      -0.2524
     48 O           1.7228   -0.7747   -0.7440 O.3     1  LIG11      -0.3873
     49 O          -0.0910   -1.7288    1.1103 O.3     1  LIG11      -0.3873
     50 O           3.6333   -2.4690   -7.7697 O.2     1  LIG11      -0.2698
     51 H           3.2685   -2.3917   -1.8300 H       1  LIG11       0.0531
     52 C           7.9974   -3.4553  -10.2696 C.ar    1  LIG11      -0.0435
     53 H           0.9145   -2.5854   -1.3239 H       1  LIG11       0.0638
     54 C           7.0829   -2.4168  -10.0718 C.ar    1  LIG11      -0.0571
     55 C           6.1772   -2.4849   -9.0099 C.ar    1  LIG11      -0.0215
     56 H           1.8114   -2.1645    1.6164 H       1  LIG11       0.0638
     57 H           0.3108   -4.0496    2.0456 H       1  LIG11       0.0531
     58 H           3.3325   -6.0539    2.4978 H       1  LIG11       0.0514
     59 H           1.6229   -6.5227    2.3771 H       1  LIG11       0.0514
     60 H           4.8714   -3.9099   -4.3843 H       1  LIG11       0.0628
     61 H           1.4020   -3.2148   -6.8407 H       1  LIG11       0.0625
     62 H          -0.0519   -3.9005   -4.9571 H       1  LIG11       0.0618
     63 H           0.9523   -4.7825   -2.9068 H       1  LIG11       0.0621
     64 H           4.0504   -2.7894    1.0833 H       1  LIG11       0.0332
     65 H           3.9875   -1.2113    0.2819 H       1  LIG11       0.0332
     66 H           5.6224   -0.6142   -1.4772 H       1  LIG11       0.0620
     67 H           7.9085   -0.9705   -2.3502 H       1  LIG11       0.0618
     68 H           9.1168   -3.0834   -1.8573 H       1  LIG11       0.0618
     69 H           8.0234   -4.8411   -0.4840 H       1  LIG11       0.0618
     70 H           5.7448   -4.4842    0.4075 H       1  LIG11       0.0620
     71 H           0.4401   -4.9300   -0.8126 H       1  LIG11       0.0332
     72 H          -0.9351   -4.0024   -0.2171 H       1  LIG11       0.0332
     73 H          -2.2751   -4.9013    1.7437 H       1  LIG11       0.0620
     74 H          -3.4378   -6.9557    2.4889 H       1  LIG11       0.0618
     75 H          -2.6172   -9.1844    1.7596 H       1  LIG11       0.0618
     76 H          -0.6321   -9.3499    0.2757 H       1  LIG11       0.0618
     77 H           0.5478   -7.3037   -0.4540 H       1  LIG11       0.0620
     78 H           0.2695   -5.8410    4.2562 H       1  LIG11       0.0657
     79 H           1.5412   -2.7649    6.9276 H       1  LIG11       0.0691
     80 H           3.8304   -3.5933    3.3795 H       1  LIG11       0.0657
     81 H           0.2372   -4.1567    8.4766 H       1  LIG11       0.0660
     82 H           0.8127   -5.7659    7.9133 H       1  LIG11       0.0660
     83 H          -0.9209   -5.4977    8.2550 H       1  LIG11       0.0660
     84 H           4.4378   -0.4852    6.6245 H       1  LIG11       0.0660
     85 H           3.6538   -1.8080    7.5279 H       1  LIG11       0.0660
     86 H           2.6574   -0.6213    6.5955 H       1  LIG11       0.0660
     87 H           5.6044   -4.5336   -6.4541 H       1  LIG11       0.1566
     88 H           8.6892   -5.3678   -9.5326 H       1  LIG11       0.0830
     89 H           0.8947   -0.3217   -0.6127 H       1  LIG11       0.2100
     90 H          -0.7875   -1.8296    0.4706 H       1  LIG11       0.2100
     91 H           8.7100   -3.4134  -11.0863 H       1  LIG11       0.0633
     92 H           5.4991   -1.6573   -8.8469 H       1  LIG11       0.0652
     93 H           7.0789   -1.5599  -10.7384 H       1  LIG11       0.0619
@<TRIPOS>BOND
     1    91    52    1
     2    93    54    1
     3    52    54   ar
     4    52    44   ar
     5    54    55   ar
     6    88    44    1
     7    44    16   ar
     8    55    92    1
     9    55    15   ar
    10    16    15   ar
    11    15    43    1
    12    50    14    2
    13    43    14   am
    14    43    87    1
    15    14    10    1
    16    61    11    1
    17    11    10   ar
    18    11    12   ar
    19    10     9   ar
    20    62    12    1
    21    12    13   ar
    22     9    60    1
    23     9     8   ar
    24    13     8   ar
    25    13    63    1
    26     8     2    1
    27    67    20    1
    28    45     2    1
    29     2    46    1
    30     2    41    1
    31    68    21    1
    32    51     3    1
    33    20    21   ar
    34    20    19   ar
    35    66    19    1
    36    21    22   ar
    37    53     4    1
    38    19    18   ar
    39    41     3    1
    40    41     1   am
    41     3     4    1
    42     3    17    1
    43    71    24    1
    44    48    89    1
    45    48     4    1
    46    22    69    1
    47    22    23   ar
    48     4     5    1
    49    18    23   ar
    50    18    17    1
    51    77    30    1
    52    72    24    1
    53    23    70    1
    54    24    25    1
    55    24     6    1
    56    17    65    1
    57    17    64    1
    58     1    47    2
    59     1    42   am
    60    30    25   ar
    61    30    29   ar
    62    76    29    1
    63    90    49    1
    64    25    26   ar
    65    29    28   ar
    66     5     6    1
    67     5    49    1
    68     5    56    1
    69     6    42    1
    70     6    57    1
    71    42     7    1
    72    26    73    1
    73    26    27   ar
    74    28    75    1
    75    28    27   ar
    76    27    74    1
    77    59     7    1
    78     7    58    1
    79     7    31    1
    80    80    36    1
    81    31    36   ar
    82    31    32   ar
    83    36    35   ar
    84    78    32    1
    85    32    33   ar
    86    35    39    1
    87    35    34   ar
    88    39    40    1
    89    33    34   ar
    90    33    37    1
    91    34    79    1
    92    37    38    1
    93    86    40    1
    94    40    84    1
    95    40    85    1
    96    38    82    1
    97    38    83    1
    98    38    81    1
