@<TRIPOS>MOLECULE
Mol_83
 98 104 0 0 0
SMALL
GASTEIGER
Energy = 0

@<TRIPOS>ATOM
      1 C           3.2527   -4.8499   -0.1064 C.2     1  LIG11       0.3060
      2 C           2.7813   -5.5408    2.1750 C.3     1  LIG11       0.0416
      3 C           1.1986   -3.9703    0.9523 C.3     1  LIG11       0.0601
      4 C           1.2695   -2.4451    0.6997 C.3     1  LIG11       0.1016
      5 C           1.6769   -2.1200   -0.7640 C.3     1  LIG11       0.1016
      6 C           3.1159   -2.5881   -1.0875 C.3     1  LIG11       0.0601
      7 C           3.9012   -4.6009   -2.4259 C.3     1  LIG11       0.0416
      8 C           2.9489   -4.7493    3.4819 C.ar    1  LIG11      -0.0293
      9 C           2.0330   -4.9071    4.5264 C.ar    1  LIG11      -0.0449
     10 C           2.2695   -4.3140    5.7718 C.ar    1  LIG11       0.0374
     11 C           3.3285   -3.4162    5.9274 C.ar    1  LIG11      -0.0496
     12 C           4.2214   -3.2133    4.8727 C.ar    1  LIG11      -0.0607
     13 C           4.0382   -3.8876    3.6606 C.ar    1  LIG11      -0.0570
     14 C           1.4135   -4.6720    6.9655 C.2     1  LIG11       0.2493
     15 C           6.0713   -3.8265   -8.5564 C.ar    1  LIG11       0.1252
     16 N           7.1601   -4.6142   -8.4528 N.ar    1  LIG11      -0.2387
     17 C           8.0432   -4.7474   -9.4596 C.ar    1  LIG11       0.0480
     18 C           0.1857   -4.6805    0.0024 C.3     1  LIG11      -0.0064
     19 C          -0.6740   -5.7557    0.6798 C.ar    1  LIG11      -0.0455
     20 C          -0.3396   -7.1114    0.5870 C.ar    1  LIG11      -0.0585
     21 C          -1.1691   -8.0802    1.1596 C.ar    1  LIG11      -0.0615
     22 C          -2.3283   -7.6973    1.8405 C.ar    1  LIG11      -0.0617
     23 C          -2.6560   -6.3435    1.9512 C.ar    1  LIG11      -0.0615
     24 C          -1.8260   -5.3761    1.3784 C.ar    1  LIG11      -0.0585
     25 C           4.1907   -1.9315   -0.1712 C.3     1  LIG11      -0.0064
     26 C           5.6259   -2.1879   -0.6562 C.ar    1  LIG11      -0.0455
     27 C           6.3467   -3.2866   -0.1726 C.ar    1  LIG11      -0.0585
     28 C           7.6637   -3.5089   -0.5835 C.ar    1  LIG11      -0.0615
     29 C           8.2689   -2.6364   -1.4916 C.ar    1  LIG11      -0.0617
     30 C           7.5543   -1.5403   -1.9825 C.ar    1  LIG11      -0.0615
     31 C           6.2367   -1.3198   -1.5690 C.ar    1  LIG11      -0.0585
     32 C           3.1448   -4.2324   -3.7144 C.ar    1  LIG11      -0.0293
     33 C           3.8490   -3.7559   -4.8227 C.ar    1  LIG11      -0.0449
     34 C           3.2036   -3.5565   -6.0496 C.ar    1  LIG11       0.0374
     35 C           1.8112   -3.6517   -6.1249 C.ar    1  LIG11      -0.0496
     36 C           1.0872   -4.0686   -5.0065 C.ar    1  LIG11      -0.0607
     37 C           1.7578   -4.3841   -3.8212 C.ar    1  LIG11      -0.0570
     38 C           4.0081   -3.2684   -7.2974 C.2     1  LIG11       0.2493
     39 C           7.8759   -4.0098  -10.6327 C.ar    1  LIG11       0.0592
     40 C           6.7846   -3.1439  -10.7459 C.ar    1  LIG11      -0.0387
     41 C           5.8662   -3.0375   -9.6969 C.ar    1  LIG11      -0.0201
     42 N           2.4770   -4.6959    1.0070 N.am    1  LIG11      -0.2752
     43 N           3.3126   -4.0380   -1.2001 N.am    1  LIG11      -0.2752
     44 N           1.1370   -5.9803    7.1607 N.am    1  LIG11      -0.2664
     45 C           0.4884   -6.5460    8.2895 C.ar    1  LIG11       0.1252
     46 N           5.1972   -3.8964   -7.4406 N.am    1  LIG11      -0.2664
     47 N           0.5933   -7.8870    8.3778 N.ar    1  LIG11      -0.2387
     48 O           3.9741   -5.8331   -0.1397 O.2     1  LIG11      -0.2524
     49 O          -0.0254   -1.8950    1.0218 O.3     1  LIG11      -0.3873
     50 O           1.5896   -0.7040   -1.0213 O.3     1  LIG11      -0.3873
     51 O           1.0590   -3.7627    7.6960 O.2     1  LIG11      -0.2698
     52 O           3.5176   -2.5027   -8.1092 O.2     1  LIG11      -0.2698
     53 C           0.1214   -8.5707    9.4373 C.ar    1  LIG11       0.0480
     54 C          -0.5568   -7.8972   10.4549 C.ar    1  LIG11       0.0592
     55 C          -0.7286   -6.5133   10.3614 C.ar    1  LIG11      -0.0387
     56 C          -0.2101   -5.8193    9.2635 C.ar    1  LIG11      -0.0201
     57 H           3.7223   -6.1086    2.1053 H       1  LIG11       0.0514
     58 H           1.9781   -6.2881    2.2664 H       1  LIG11       0.0514
     59 H           0.7387   -4.0243    1.9544 H       1  LIG11       0.0531
     60 H           1.9818   -2.0225    1.4260 H       1  LIG11       0.0638
     61 H           1.0203   -2.6238   -1.4916 H       1  LIG11       0.0638
     62 H           3.3111   -2.1478   -2.0818 H       1  LIG11       0.0531
     63 H           3.9056   -5.7024   -2.4511 H       1  LIG11       0.0514
     64 H           4.9507   -4.2714   -2.4704 H       1  LIG11       0.0514
     65 H           1.1380   -5.5021    4.3771 H       1  LIG11       0.0628
     66 H           3.4645   -2.8946    6.8704 H       1  LIG11       0.0625
     67 H           5.0623   -2.5383    5.0023 H       1  LIG11       0.0618
     68 H           4.7548   -3.7459    2.8598 H       1  LIG11       0.0621
     69 H           8.8779   -5.4299   -9.3470 H       1  LIG11       0.0845
     70 CL          9.0259   -4.1736  -11.9423 Cl      1  LIG11      -0.0820
     71 H           0.7310   -5.1489   -0.8224 H       1  LIG11       0.0332
     72 H          -0.5363   -3.9711   -0.4309 H       1  LIG11       0.0332
     73 H           0.5612   -7.4195    0.0652 H       1  LIG11       0.0620
     74 H          -0.9141   -9.1320    1.0737 H       1  LIG11       0.0618
     75 H          -2.9737   -8.4500    2.2827 H       1  LIG11       0.0618
     76 H          -3.5556   -6.0428    2.4798 H       1  LIG11       0.0618
     77 H          -2.0853   -4.3258    1.4735 H       1  LIG11       0.0620
     78 H           4.1329   -2.3235    0.8514 H       1  LIG11       0.0332
     79 H           4.0244   -0.8431   -0.1209 H       1  LIG11       0.0332
     80 H           5.8905   -3.9762    0.5294 H       1  LIG11       0.0620
     81 H           8.2165   -4.3592   -0.1957 H       1  LIG11       0.0618
     82 H           9.2913   -2.8102   -1.8135 H       1  LIG11       0.0618
     83 H           8.0255   -0.8590   -2.6846 H       1  LIG11       0.0618
     84 H           5.6922   -0.4655   -1.9586 H       1  LIG11       0.0620
     85 H           4.9082   -3.5451   -4.7271 H       1  LIG11       0.0628
     86 H           1.2958   -3.4170   -7.0515 H       1  LIG11       0.0625
     87 H           0.0059   -4.1558   -5.0626 H       1  LIG11       0.0618
     88 H           1.1870   -4.7573   -2.9872 H       1  LIG11       0.0621
     89 H           6.6534   -2.5577  -11.6495 H       1  LIG11       0.0634
     90 H           5.0357   -2.3540   -9.8048 H       1  LIG11       0.0652
     91 H           1.5030   -6.6403    6.5076 H       1  LIG11       0.1566
     92 H           5.4892   -4.5339   -6.7319 H       1  LIG11       0.1566
     93 H           0.2740   -9.6428    9.4892 H       1  LIG11       0.0845
     94 H          -0.0279   -0.9466    1.1145 H       1  LIG11       0.2100
     95 H           0.6952   -0.3750   -1.0212 H       1  LIG11       0.2100
     96 CL         -1.1831   -8.7843   11.8285 Cl      1  LIG11      -0.0820
     97 H          -1.2646   -5.9831   11.1417 H       1  LIG11       0.0634
     98 H          -0.3690   -4.7513    9.2008 H       1  LIG11       0.0652
@<TRIPOS>BOND
     1    70    39    1
     2    89    40    1
     3    40    39   ar
     4    40    41   ar
     5    39    17   ar
     6    90    41    1
     7    41    15   ar
     8    17    69    1
     9    17    16   ar
    10    15    16   ar
    11    15    46    1
    12    52    38    2
    13    46    38   am
    14    46    92    1
    15    38    34    1
    16    86    35    1
    17    35    34   ar
    18    35    36   ar
    19    34    33   ar
    20    87    36    1
    21    36    37   ar
    22    33    85    1
    23    33    32   ar
    24    37    32   ar
    25    37    88    1
    26    32     7    1
    27    83    30    1
    28    64     7    1
    29    63     7    1
    30     7    43    1
    31    62     6    1
    32    30    31   ar
    33    30    29   ar
    34    84    31    1
    35    82    29    1
    36    31    26   ar
    37    29    28   ar
    38    61     5    1
    39    43     6    1
    40    43     1   am
    41     6     5    1
    42     6    25    1
    43    50    95    1
    44    50     5    1
    45    71    18    1
    46     5     4    1
    47    26    27   ar
    48    26    25    1
    49    28    81    1
    50    28    27   ar
    51    72    18    1
    52    27    80    1
    53    25    79    1
    54    25    78    1
    55    48     1    2
    56     1    42   am
    57    18    19    1
    58    18     3    1
    59    73    20    1
    60    20    19   ar
    61    20    21   ar
    62    19    24   ar
    63     4     3    1
    64     4    49    1
    65     4    60    1
    66     3    42    1
    67     3    59    1
    68    42     2    1
    69    49    94    1
    70    74    21    1
    71    21    22   ar
    72    24    77    1
    73    24    23   ar
    74    22    23   ar
    75    22    75    1
    76    23    76    1
    77    57     2    1
    78     2    58    1
    79     2     8    1
    80    68    13    1
    81     8    13   ar
    82     8     9   ar
    83    13    12   ar
    84    65     9    1
    85     9    10   ar
    86    12    67    1
    87    12    11   ar
    88    10    11   ar
    89    10    14    1
    90    11    66    1
    91    91    44    1
    92    14    44   am
    93    14    51    2
    94    44    45    1
    95    45    47   ar
    96    45    56   ar
    97    47    53   ar
    98    98    56    1
    99    56    55   ar
   100    53    93    1
   101    53    54   ar
   102    55    54   ar
   103    55    97    1
   104    54    96    1
