@<TRIPOS>MOLECULE
Mol_70
 98 102 0 0 0
SMALL
GASTEIGER
Energy = 0

@<TRIPOS>ATOM
      1 C           2.9510   -5.0135   -0.2044 C.2     1  LIG11       0.3060
      2 C           2.4410   -5.5667    2.1113 C.3     1  LIG11       0.0416
      3 C           1.0180   -3.8911    0.8347 C.3     1  LIG11       0.0601
      4 C           1.2615   -2.3844    0.5837 C.3     1  LIG11       0.1016
      5 C           1.7482   -2.0838   -0.8554 C.3     1  LIG11       0.1016
      6 C           3.1141   -2.7481   -1.1652 C.3     1  LIG11       0.0601
      7 C           3.6416   -4.8311   -2.5242 C.3     1  LIG11       0.0416
      8 C           2.6869   -4.7290    3.3785 C.ar    1  LIG11      -0.0293
      9 C           1.7548   -4.7234    4.4213 C.ar    1  LIG11      -0.0449
     10 C           2.0197   -4.0376    5.6131 C.ar    1  LIG11       0.0370
     11 C           3.1598   -3.2349    5.7122 C.ar    1  LIG11      -0.0496
     12 C           4.0841   -3.2107    4.6658 C.ar    1  LIG11      -0.0607
     13 C           3.8622   -3.9808    3.5195 C.ar    1  LIG11      -0.0570
     14 C           1.0991   -4.1668    6.8057 C.2     1  LIG11       0.2443
     15 C           5.8579   -2.8733   -8.5780 C.3     1  LIG11       0.0178
     16 C           6.9152   -3.9586   -8.9205 C.3     1  LIG11      -0.0469
     17 C           6.5319   -1.4999   -8.3211 C.3     1  LIG11      -0.0469
     18 C          -0.0416   -4.4982   -0.1311 C.3     1  LIG11      -0.0064
     19 C          -0.6611   -5.7992    0.4051 C.ar    1  LIG11      -0.0455
     20 C          -0.0785   -7.0409    0.1238 C.ar    1  LIG11      -0.0585
     21 C          -0.6542   -8.2189    0.6104 C.ar    1  LIG11      -0.0615
     22 C          -1.8181   -8.1642    1.3822 C.ar    1  LIG11      -0.0617
     23 C          -2.4093   -6.9289    1.6592 C.ar    1  LIG11      -0.0615
     24 C          -1.8308   -5.7526    1.1732 C.ar    1  LIG11      -0.0585
     25 C           4.2355   -2.2579   -0.2018 C.3     1  LIG11      -0.0064
     26 C           5.6506   -2.5189   -0.7432 C.ar    1  LIG11      -0.0455
     27 C           6.3191   -3.7079   -0.4294 C.ar    1  LIG11      -0.0585
     28 C           7.6270   -3.9238   -0.8736 C.ar    1  LIG11      -0.0615
     29 C           8.2730   -2.9568   -1.6485 C.ar    1  LIG11      -0.0617
     30 C           7.6038   -1.7769   -1.9843 C.ar    1  LIG11      -0.0615
     31 C           6.2955   -1.5634   -1.5388 C.ar    1  LIG11      -0.0585
     32 C           2.9405   -4.3457   -3.8061 C.ar    1  LIG11      -0.0293
     33 C           3.6665   -3.6948   -4.8081 C.ar    1  LIG11      -0.0449
     34 C           3.0536   -3.3321   -6.0136 C.ar    1  LIG11       0.0370
     35 C           1.6745   -3.4958   -6.1705 C.ar    1  LIG11      -0.0496
     36 C           0.9327   -4.1158   -5.1634 C.ar    1  LIG11      -0.0607
     37 C           1.5724   -4.5667   -4.0049 C.ar    1  LIG11      -0.0570
     38 C           3.8693   -2.7866   -7.1634 C.2     1  LIG11       0.2443
     39 C          -0.3020   -5.5334    8.2701 C.3     1  LIG11       0.0178
     40 C          -1.4194   -6.5709    7.9842 C.3     1  LIG11      -0.0469
     41 C           0.6349   -6.0178    9.4064 C.3     1  LIG11      -0.0469
     42 N           2.2109   -4.7443    0.9105 N.am    1  LIG11      -0.2752
     43 N           3.1207   -4.2105   -1.2946 N.am    1  LIG11      -0.2752
     44 N           0.5159   -5.3560    7.0751 N.am    1  LIG11      -0.3090
     45 H           3.3230   -6.2230    2.0523 H       1  LIG11       0.0514
     46 N           5.0935   -3.3013   -7.4100 N.am    1  LIG11      -0.3090
     47 H           1.5711   -6.2274    2.2460 H       1  LIG11       0.0514
     48 O           3.5238   -6.0899   -0.2351 O.2     1  LIG11      -0.2524
     49 O           0.0247   -1.6857    0.8309 O.3     1  LIG11      -0.3873
     50 O           1.8494   -0.6475   -0.9648 O.3     1  LIG11      -0.3873
     51 O           0.9289   -3.1840    7.5097 O.2     1  LIG11      -0.2702
     52 O           3.3805   -1.9094   -7.8575 O.2     1  LIG11      -0.2702
     53 H           0.5241   -3.9017    1.8221 H       1  LIG11       0.0531
     54 H           1.9930   -2.0298    1.3284 H       1  LIG11       0.0638
     55 H           0.9979   -2.4325   -1.5846 H       1  LIG11       0.0638
     56 H           3.3997   -2.3282   -2.1445 H       1  LIG11       0.0531
     57 H           3.5174   -5.9252   -2.5560 H       1  LIG11       0.0514
     58 H           4.7228   -4.6292   -2.5679 H       1  LIG11       0.0514
     59 H           0.8180   -5.2575    4.3086 H       1  LIG11       0.0628
     60 H           3.3319   -2.6423    6.6064 H       1  LIG11       0.0625
     61 H           4.9778   -2.5991    4.7504 H       1  LIG11       0.0618
     62 H           4.6163   -4.0022    2.7418 H       1  LIG11       0.0621
     63 H           5.1722   -2.7787   -9.4403 H       1  LIG11       0.0493
     64 H           7.5595   -3.6295   -9.7488 H       1  LIG11       0.0247
     65 H           6.4090   -4.8931   -9.2105 H       1  LIG11       0.0247
     66 H           7.5508   -4.1662   -8.0448 H       1  LIG11       0.0247
     67 H           5.8487   -0.8315   -7.7758 H       1  LIG11       0.0247
     68 H           6.7945   -1.0233   -9.2790 H       1  LIG11       0.0247
     69 H           7.4492   -1.6208   -7.7258 H       1  LIG11       0.0247
     70 H           0.4243   -4.7174   -1.0953 H       1  LIG11       0.0332
     71 H          -0.8573   -3.7819   -0.3182 H       1  LIG11       0.0332
     72 H           0.8247   -7.0977   -0.4757 H       1  LIG11       0.0620
     73 H          -0.1980   -9.1790    0.3885 H       1  LIG11       0.0618
     74 H          -2.2626   -9.0781    1.7653 H       1  LIG11       0.0618
     75 H          -3.3186   -6.8833    2.2511 H       1  LIG11       0.0618
     76 H          -2.3006   -4.7997    1.3951 H       1  LIG11       0.0620
     77 H           4.1432   -2.7605    0.7677 H       1  LIG11       0.0332
     78 H           4.1421   -1.1761   -0.0166 H       1  LIG11       0.0332
     79 H           5.8262   -4.4706    0.1647 H       1  LIG11       0.0620
     80 H           8.1429   -4.8435   -0.6150 H       1  LIG11       0.0618
     81 H           9.2914   -3.1216   -1.9881 H       1  LIG11       0.0618
     82 H           8.1029   -1.0259   -2.5899 H       1  LIG11       0.0618
     83 H           5.7856   -0.6450   -1.8124 H       1  LIG11       0.0620
     84 H           4.7160   -3.4718   -4.6522 H       1  LIG11       0.0628
     85 H           1.1846   -3.1559   -7.0784 H       1  LIG11       0.0625
     86 H          -0.1376   -4.2545   -5.2875 H       1  LIG11       0.0618
     87 H           0.9958   -5.1025   -3.2648 H       1  LIG11       0.0621
     88 H          -0.7845   -4.5838    8.5655 H       1  LIG11       0.0493
     89 H          -1.9207   -6.3209    7.0361 H       1  LIG11       0.0247
     90 H          -2.1670   -6.5655    8.7923 H       1  LIG11       0.0247
     91 H          -0.9985   -7.5846    7.8995 H       1  LIG11       0.0247
     92 H           1.4238   -5.2711    9.5870 H       1  LIG11       0.0247
     93 H           1.1165   -6.9671    9.1240 H       1  LIG11       0.0247
     94 H           0.0680   -6.1700   10.3372 H       1  LIG11       0.0247
     95 H           0.7101   -6.1615    6.5163 H       1  LIG11       0.1493
     96 H           5.4683   -4.0177   -6.8230 H       1  LIG11       0.1493
     97 H           0.1228   -0.7411    0.7424 H       1  LIG11       0.2100
     98 H           2.0924   -0.3390   -1.8335 H       1  LIG11       0.2100
@<TRIPOS>BOND
     1    64    16    1
     2    63    15    1
     3    68    17    1
     4    65    16    1
     5    16    15    1
     6    16    66    1
     7    15    17    1
     8    15    46    1
     9    17    67    1
    10    17    69    1
    11    52    38    2
    12    46    38   am
    13    46    96    1
    14    38    34    1
    15    85    35    1
    16    35    34   ar
    17    35    36   ar
    18    34    33   ar
    19    86    36    1
    20    36    37   ar
    21    33    84    1
    22    33    32   ar
    23    37    32   ar
    24    37    87    1
    25    32     7    1
    26    82    30    1
    27    58     7    1
    28    57     7    1
    29     7    43    1
    30    56     6    1
    31    81    29    1
    32    30    29   ar
    33    30    31   ar
    34    98    50    1
    35    83    31    1
    36    29    28   ar
    37    55     5    1
    38    31    26   ar
    39    43     6    1
    40    43     1   am
    41     6     5    1
    42     6    25    1
    43    70    18    1
    44    50     5    1
    45    28    80    1
    46    28    27   ar
    47     5     4    1
    48    26    27   ar
    49    26    25    1
    50    72    20    1
    51    27    79    1
    52    71    18    1
    53    48     1    2
    54     1    42   am
    55    25    78    1
    56    25    77    1
    57    18    19    1
    58    18     3    1
    59    20    19   ar
    60    20    21   ar
    61    73    21    1
    62    19    24   ar
    63     4    49    1
    64     4     3    1
    65     4    54    1
    66    21    22   ar
    67    97    49    1
    68     3    42    1
    69     3    53    1
    70    42     2    1
    71    24    76    1
    72    24    23   ar
    73    22    23   ar
    74    22    74    1
    75    23    75    1
    76    45     2    1
    77     2    47    1
    78     2     8    1
    79    62    13    1
    80     8    13   ar
    81     8     9   ar
    82    13    12   ar
    83    59     9    1
    84     9    10   ar
    85    12    61    1
    86    12    11   ar
    87    10    11   ar
    88    10    14    1
    89    11    60    1
    90    95    44    1
    91    14    44   am
    92    14    51    2
    93    89    40    1
    94    44    39    1
    95    91    40    1
    96    40    39    1
    97    40    90    1
    98    39    88    1
    99    39    41    1
   100    93    41    1
   101    41    92    1
   102    41    94    1
