@<TRIPOS>MOLECULE
Mol_09
 70 72 0 0 0
SMALL
GASTEIGER
Energy = 0

@<TRIPOS>ATOM
      1 C           2.7829   -4.5207    0.1788 C.2     1  LIG11       0.3054
      2 C           3.7474   -4.2822   -2.0541 C.3     1  LIG11       0.0189
      3 C           2.9138   -2.2339   -0.7797 C.3     1  LIG11       0.0598
      4 C           1.5018   -1.6282   -0.5712 C.3     1  LIG11       0.1016
      5 C           0.9330   -1.9504    0.8283 C.3     1  LIG11       0.1016
      6 C           0.7125   -3.4718    1.0062 C.3     1  LIG11       0.0598
      7 C           2.0383   -5.0817    2.4476 C.3     1  LIG11       0.0189
      8 C           2.7634   -4.7669   -3.1635 C.3     1  LIG11      -0.0308
      9 C           3.5450   -5.4884   -4.2970 C.3     1  LIG11      -0.0612
     10 C           1.9436   -3.6017   -3.7892 C.3     1  LIG11      -0.0612
     11 C           1.7604   -4.8417    4.9905 C.3     1  LIG11      -0.0612
     12 H           4.3964   -5.1277   -1.7754 H       1  LIG11       0.0468
     13 H           4.4396   -3.5544   -2.5052 H       1  LIG11       0.0468
     14 H           3.2010   -1.7859   -1.7456 H       1  LIG11       0.0530
     15 H           0.8152   -2.0235   -1.3291 H       1  LIG11       0.0638
     16 H           1.6242   -1.6133    1.6171 H       1  LIG11       0.0638
     17 H           0.1065   -3.5106    1.9281 H       1  LIG11       0.0530
     18 C           3.9605   -1.6556    0.2155 C.3     1  LIG11      -0.0064
     19 C           5.4054   -1.8765   -0.2612 C.ar    1  LIG11      -0.0455
     20 C           6.0857   -3.0609    0.0445 C.ar    1  LIG11      -0.0585
     21 C           7.4080   -3.2457   -0.3726 C.ar    1  LIG11      -0.0615
     22 C           8.0567   -2.2505   -1.1082 C.ar    1  LIG11      -0.0617
     23 C           7.3816   -1.0673   -1.4206 C.ar    1  LIG11      -0.0615
     24 C           6.0620   -0.8833   -0.9986 C.ar    1  LIG11      -0.0585
     25 C          -0.2156   -4.1287   -0.0590 C.3     1  LIG11      -0.0064
     26 C          -0.7537   -5.4934    0.4058 C.ar    1  LIG11      -0.0455
     27 C          -1.8849   -5.5604    1.2292 C.ar    1  LIG11      -0.0585
     28 C          -2.3952   -6.7961    1.6372 C.ar    1  LIG11      -0.0615
     29 C          -1.7781   -7.9797    1.2219 C.ar    1  LIG11      -0.0617
     30 C          -0.6481   -7.9210    0.4030 C.ar    1  LIG11      -0.0615
     31 C          -0.1325   -6.6825    0.0063 C.ar    1  LIG11      -0.0585
     32 C           2.3283   -4.1916    3.6976 C.3     1  LIG11      -0.0308
     33 C           3.8522   -3.9400    3.8808 C.3     1  LIG11      -0.0612
     34 H           2.8062   -5.8702    2.4245 H       1  LIG11       0.0468
     35 H           1.0814   -5.6113    2.5776 H       1  LIG11       0.0468
     36 H           2.0652   -5.4970   -2.7172 H       1  LIG11       0.0311
     37 H           2.8514   -5.8814   -5.0575 H       1  LIG11       0.0233
     38 H           4.1227   -6.3358   -3.8977 H       1  LIG11       0.0233
     39 H           4.2369   -4.7847   -4.7848 H       1  LIG11       0.0233
     40 H           2.5814   -2.7257   -3.9802 H       1  LIG11       0.0233
     41 H           1.1237   -3.3096   -3.1279 H       1  LIG11       0.0233
     42 N           3.0598   -3.6968   -0.8817 N.am    1  LIG11      -0.2793
     43 N           1.9181   -4.2833    1.2100 N.am    1  LIG11      -0.2793
     44 H           1.4819   -3.8999   -4.7424 H       1  LIG11       0.0233
     45 H           2.2755   -5.7924    5.1960 H       1  LIG11       0.0233
     46 H           0.6824   -5.0418    4.8883 H       1  LIG11       0.0233
     47 H           1.9011   -4.1713    5.8531 H       1  LIG11       0.0233
     48 O           3.3667   -5.5911    0.2105 O.2     1  LIG11      -0.2524
     49 O           1.5857   -0.2063   -0.8049 O.3     1  LIG11      -0.3873
     50 O          -0.3304   -1.2861    1.0368 O.3     1  LIG11      -0.3873
     51 H           3.8503   -2.1274    1.1966 H       1  LIG11       0.0332
     52 H           3.8010   -0.5747    0.3553 H       1  LIG11       0.0332
     53 H           5.5920   -3.8448    0.6097 H       1  LIG11       0.0620
     54 H           7.9327   -4.1633   -0.1243 H       1  LIG11       0.0618
     55 H           9.0819   -2.3947   -1.4363 H       1  LIG11       0.0618
     56 H           7.8835   -0.2911   -1.9905 H       1  LIG11       0.0618
     57 H           5.5503    0.0412   -1.2464 H       1  LIG11       0.0620
     58 H           0.3222   -4.2837   -1.0036 H       1  LIG11       0.0332
     59 H          -1.0772   -3.4739   -0.2662 H       1  LIG11       0.0332
     60 H          -2.3758   -4.6489    1.5551 H       1  LIG11       0.0620
     61 H          -3.2724   -6.8392    2.2761 H       1  LIG11       0.0618
     62 H          -2.1759   -8.9407    1.5349 H       1  LIG11       0.0618
     63 H          -0.1700   -8.8388    0.0740 H       1  LIG11       0.0618
     64 H           0.7553   -6.6540   -0.6172 H       1  LIG11       0.0620
     65 H           1.8308   -3.2150    3.5779 H       1  LIG11       0.0311
     66 H           4.0313   -3.2278    4.7020 H       1  LIG11       0.0233
     67 H           4.2974   -3.5314    2.9661 H       1  LIG11       0.0233
     68 H           4.3747   -4.8792    4.1176 H       1  LIG11       0.0233
     69 H           0.7385    0.2218   -0.8866 H       1  LIG11       0.2100
     70 H          -0.2511   -0.3416    1.1327 H       1  LIG11       0.2100
@<TRIPOS>BOND
     1    37     9    1
     2    39     9    1
     3    44    10    1
     4     9    38    1
     5     9     8    1
     6    40    10    1
     7    10     8    1
     8    10    41    1
     9     8    36    1
    10     8     2    1
    11    13     2    1
    12     2    12    1
    13     2    42    1
    14    56    23    1
    15    14     3    1
    16    55    22    1
    17    23    22   ar
    18    23    24   ar
    19    15     4    1
    20    57    24    1
    21    22    21   ar
    22    58    25    1
    23    24    19   ar
    24    69    49    1
    25    42     3    1
    26    42     1   am
    27    49     4    1
    28     3     4    1
    29     3    18    1
    30    64    31    1
    31     4     5    1
    32    21    54    1
    33    21    20   ar
    34    59    25    1
    35    19    20   ar
    36    19    18    1
    37    25    26    1
    38    25     6    1
    39    31    30   ar
    40    31    26   ar
    41    20    53    1
    42    63    30    1
    43     1    48    2
    44     1    43   am
    45    18    52    1
    46    18    51    1
    47    30    29   ar
    48    26    27   ar
    49     5     6    1
    50     5    50    1
    51     5    16    1
    52     6    43    1
    53     6    17    1
    54    50    70    1
    55    43     7    1
    56    29    62    1
    57    29    28   ar
    58    27    60    1
    59    27    28   ar
    60    28    61    1
    61    34     7    1
    62     7    35    1
    63     7    32    1
    64    67    33    1
    65    65    32    1
    66    32    33    1
    67    32    11    1
    68    33    68    1
    69    33    66    1
    70    46    11    1
    71    11    45    1
    72    11    47    1
