@<TRIPOS>MOLECULE
Mol_82
 110 116 0 0 0
SMALL
GASTEIGER
Energy = 0

@<TRIPOS>ATOM
      1 C           2.8416   -4.8321    0.3221 C.2     1  LIG11       0.3060
      2 C           2.2678   -5.4389    2.5939 C.3     1  LIG11       0.0416
      3 C           0.8559   -3.7511    1.3219 C.3     1  LIG11       0.0601
      4 C           1.0748   -2.2428    1.0441 C.3     1  LIG11       0.1016
      5 C           1.5444   -1.9784   -0.4133 C.3     1  LIG11       0.1016
      6 C           2.9424   -2.5823   -0.6925 C.3     1  LIG11       0.0601
      7 C           3.5909   -4.6833   -1.9739 C.3     1  LIG11       0.0416
      8 C           2.2421   -4.6797    3.9294 C.ar    1  LIG11      -0.0293
      9 C           1.4078   -5.1186    4.9593 C.ar    1  LIG11      -0.0449
     10 C           1.5086   -4.5672    6.2420 C.ar    1  LIG11       0.0374
     11 C           2.2777   -3.4174    6.4419 C.ar    1  LIG11      -0.0496
     12 C           3.0524   -2.9156    5.3939 C.ar    1  LIG11      -0.0607
     13 C           3.0575   -3.5657    4.1559 C.ar    1  LIG11      -0.0570
     14 C           0.8136   -5.2289    7.4109 C.2     1  LIG11       0.2493
     15 C           6.1463   -3.6244   -7.8915 C.ar    1  LIG11       0.1256
     16 N           7.3970   -3.9882   -7.5574 N.ar    1  LIG11      -0.2370
     17 C           8.3809   -4.0552   -8.4707 C.ar    1  LIG11       0.0406
     18 C          -0.2010   -4.3741    0.3637 C.3     1  LIG11      -0.0064
     19 C          -0.7338   -5.7378    0.8236 C.ar    1  LIG11      -0.0455
     20 C          -1.8959   -5.8160    1.5997 C.ar    1  LIG11      -0.0585
     21 C          -2.3971   -7.0587    1.9979 C.ar    1  LIG11      -0.0615
     22 C          -1.7352   -8.2318    1.6256 C.ar    1  LIG11      -0.0617
     23 C          -0.5752   -8.1597    0.8496 C.ar    1  LIG11      -0.0615
     24 C          -0.0763   -6.9164    0.4511 C.ar    1  LIG11      -0.0585
     25 C           4.0440   -2.0083    0.2468 C.3     1  LIG11      -0.0064
     26 C           5.4724   -2.2297   -0.2756 C.ar    1  LIG11      -0.0455
     27 C           6.1331   -3.4423   -0.0444 C.ar    1  LIG11      -0.0585
     28 C           7.4355   -3.6408   -0.5122 C.ar    1  LIG11      -0.0615
     29 C           8.0933   -2.6213   -1.2055 C.ar    1  LIG11      -0.0617
     30 C           7.4435   -1.4052   -1.4318 C.ar    1  LIG11      -0.0615
     31 C           6.1374   -1.2130   -0.9716 C.ar    1  LIG11      -0.0585
     32 C           2.9285   -4.2571   -3.2934 C.ar    1  LIG11      -0.0293
     33 C           3.6981   -3.7014   -4.3182 C.ar    1  LIG11      -0.0449
     34 C           3.1361   -3.4570   -5.5772 C.ar    1  LIG11       0.0374
     35 C           1.7555   -3.5729   -5.7576 C.ar    1  LIG11      -0.0496
     36 C           0.9651   -4.0657   -4.7174 C.ar    1  LIG11      -0.0607
     37 C           1.5582   -4.4410   -3.5081 C.ar    1  LIG11      -0.0570
     38 C           4.0285   -3.1051   -6.7451 C.2     1  LIG11       0.2493
     39 C           8.1330   -3.6527   -9.7856 C.ar    1  LIG11      -0.0376
     40 C           6.8593   -3.1955  -10.1450 C.ar    1  LIG11      -0.0455
     41 C           5.8402   -3.1863   -9.1855 C.ar    1  LIG11      -0.0186
     42 N           2.0619   -4.5848    1.4136 N.am    1  LIG11      -0.2752
     43 N           3.0137   -4.0465   -0.7791 N.am    1  LIG11      -0.2752
     44 N           0.7152   -6.5777    7.4014 N.am    1  LIG11      -0.2663
     45 C           0.1676   -7.4026    8.4158 C.ar    1  LIG11       0.1256
     46 N           5.1989   -3.7690   -6.8502 N.am    1  LIG11      -0.2663
     47 N           0.2295   -8.7184    8.1403 N.ar    1  LIG11      -0.2370
     48 O           3.4589   -5.8846    0.3272 O.2     1  LIG11      -0.2524
     49 O          -0.1705   -1.5659    1.3112 O.3     1  LIG11      -0.3873
     50 O           1.6100   -0.5652   -0.6981 O.3     1  LIG11      -0.3873
     51 O           0.4080   -4.4995    8.2993 O.2     1  LIG11      -0.2698
     52 O           3.6422   -2.2553   -7.5306 O.2     1  LIG11      -0.2698
     53 C          -0.1154   -9.6546    9.0406 C.ar    1  LIG11       0.0406
     54 C          -0.6401   -9.2601   10.2744 C.ar    1  LIG11      -0.0376
     55 C          -0.7792   -7.8981   10.5664 C.ar    1  LIG11      -0.0455
     56 C          -0.3838   -6.9472    9.6194 C.ar    1  LIG11      -0.0186
     57 H           3.2442   -5.9484    2.6199 H       1  LIG11       0.0514
     58 H           1.4984   -6.2254    2.5709 H       1  LIG11       0.0514
     59 H           0.3591   -3.7649    2.3080 H       1  LIG11       0.0531
     60 H           1.8111   -1.8748    1.7774 H       1  LIG11       0.0638
     61 H           0.8494   -2.4156   -1.1479 H       1  LIG11       0.0638
     62 H           3.2017   -2.1711   -1.6835 H       1  LIG11       0.0531
     63 H           3.4866   -5.7800   -1.9846 H       1  LIG11       0.0514
     64 H           4.6683   -4.4653   -1.9912 H       1  LIG11       0.0514
     65 H           0.6823   -5.8982    4.7562 H       1  LIG11       0.0628
     66 H           2.2839   -2.9253    7.4100 H       1  LIG11       0.0625
     67 H           3.6572   -2.0267    5.5468 H       1  LIG11       0.0618
     68 H           3.7080   -3.2038    3.3744 H       1  LIG11       0.0621
     69 C           9.7462   -4.5753   -8.0327 C.3     1  LIG11      -0.0223
     70 H           8.9318   -3.7010  -10.5169 H       1  LIG11       0.0638
     71 H           0.2415   -4.5385   -0.6201 H       1  LIG11       0.0332
     72 H          -1.0550   -3.6904    0.2328 H       1  LIG11       0.0332
     73 H          -2.4196   -4.9115    1.8928 H       1  LIG11       0.0620
     74 H          -3.3022   -7.1131    2.5954 H       1  LIG11       0.0618
     75 H          -2.1217   -9.1972    1.9379 H       1  LIG11       0.0618
     76 H          -0.0619   -9.0700    0.5550 H       1  LIG11       0.0618
     77 H           0.8251   -6.8740   -0.1526 H       1  LIG11       0.0620
     78 H           3.9922   -2.4902    1.2264 H       1  LIG11       0.0332
     79 H           3.8882   -0.9285    0.4007 H       1  LIG11       0.0332
     80 H           5.6379   -4.2392    0.5010 H       1  LIG11       0.0620
     81 H           7.9376   -4.5874   -0.3362 H       1  LIG11       0.0618
     82 H           9.1062   -2.7729   -1.5664 H       1  LIG11       0.0618
     83 H           7.9546   -0.6087   -1.9644 H       1  LIG11       0.0618
     84 H           5.6454   -0.2633   -1.1559 H       1  LIG11       0.0620
     85 H           4.7419   -3.4665   -4.1380 H       1  LIG11       0.0628
     86 H           1.3052   -3.2976   -6.7063 H       1  LIG11       0.0625
     87 H          -0.1074   -4.1673   -4.8540 H       1  LIG11       0.0618
     88 H           0.9460   -4.8893   -2.7404 H       1  LIG11       0.0621
     89 C           6.5747   -2.7168  -11.5731 C.3     1  LIG11      -0.0395
     90 H           4.8452   -2.8627   -9.4636 H       1  LIG11       0.0655
     91 H           1.1159   -7.0882    6.6456 H       1  LIG11       0.1566
     92 H           5.4487   -4.4374   -6.1540 H       1  LIG11       0.1566
     93 C           0.0854  -11.1209    8.6669 C.3     1  LIG11      -0.0223
     94 H          -0.0928   -0.6168    1.3244 H       1  LIG11       0.2100
     95 H           0.7568   -0.1489   -0.7823 H       1  LIG11       0.2100
     96 H          -0.9367  -10.0098   10.9990 H       1  LIG11       0.0638
     97 C          -1.3566   -7.4573   11.9154 C.3     1  LIG11      -0.0395
     98 H          -0.5140   -5.8990    9.8440 H       1  LIG11       0.0655
     99 H          10.5199   -3.8334   -8.2762 H       1  LIG11       0.0292
    100 H           9.9588   -5.5230   -8.5483 H       1  LIG11       0.0292
    101 H           9.7416   -4.7493   -6.9455 H       1  LIG11       0.0292
    102 H           1.0768  -11.4437    9.0169 H       1  LIG11       0.0292
    103 H           0.0406  -11.2247    7.5718 H       1  LIG11       0.0292
    104 H          -0.6933  -11.7510    9.1193 H       1  LIG11       0.0292
    105 H           5.9238   -3.4490  -12.0740 H       1  LIG11       0.0278
    106 H           7.5019   -2.6097  -12.1560 H       1  LIG11       0.0278
    107 H           6.0669   -1.7414  -11.5428 H       1  LIG11       0.0278
    108 H          -0.9994   -8.1229   12.7152 H       1  LIG11       0.0278
    109 H          -2.4540   -7.5084   11.8626 H       1  LIG11       0.0278
    110 H          -1.0562   -6.4278   12.1625 H       1  LIG11       0.0278
@<TRIPOS>BOND
     1   106    89    1
     2   105    89    1
     3    89   107    1
     4    89    40    1
     5    70    39    1
     6    40    39   ar
     7    40    41   ar
     8    39    17   ar
     9    90    41    1
    10    41    15   ar
    11   100    69    1
    12    17    69    1
    13    17    16   ar
    14    99    69    1
    15    69   101    1
    16    15    16   ar
    17    15    46    1
    18    52    38    2
    19    46    38   am
    20    46    92    1
    21    38    34    1
    22    86    35    1
    23    35    34   ar
    24    35    36   ar
    25    34    33   ar
    26    87    36    1
    27    36    37   ar
    28    33    85    1
    29    33    32   ar
    30    37    32   ar
    31    37    88    1
    32    32     7    1
    33    64     7    1
    34    63     7    1
    35     7    43    1
    36    83    30    1
    37    62     6    1
    38    82    29    1
    39    30    29   ar
    40    30    31   ar
    41    29    28   ar
    42    84    31    1
    43    61     5    1
    44    31    26   ar
    45    95    50    1
    46    43     6    1
    47    43     1   am
    48    50     5    1
    49     6     5    1
    50     6    25    1
    51    71    18    1
    52    28    81    1
    53    28    27   ar
    54     5     4    1
    55    26    27   ar
    56    26    25    1
    57    77    24    1
    58    27    80    1
    59    72    18    1
    60    25    79    1
    61    25    78    1
    62     1    48    2
    63     1    42   am
    64    18    19    1
    65    18     3    1
    66    24    19   ar
    67    24    23   ar
    68    76    23    1
    69    19    20   ar
    70    23    22   ar
    71     4    49    1
    72     4     3    1
    73     4    60    1
    74    49    94    1
    75     3    42    1
    76     3    59    1
    77    42     2    1
    78    20    73    1
    79    20    21   ar
    80    22    75    1
    81    22    21   ar
    82    21    74    1
    83    58     2    1
    84     2    57    1
    85     2     8    1
    86    68    13    1
    87     8    13   ar
    88     8     9   ar
    89    13    12   ar
    90    65     9    1
    91     9    10   ar
    92    12    67    1
    93    12    11   ar
    94    10    11   ar
    95    10    14    1
    96    11    66    1
    97    91    44    1
    98    44    14   am
    99    44    45    1
   100    14    51    2
   101   103    93    1
   102    47    45   ar
   103    47    53   ar
   104    45    56   ar
   105    93   102    1
   106    93    53    1
   107    93   104    1
   108    53    54   ar
   109    56    98    1
   110    56    55   ar
   111    54    55   ar
   112    54    96    1
   113    55    97    1
   114   109    97    1
   115    97   110    1
   116    97   108    1
