@<TRIPOS>MOLECULE
Mol_81
 104 110 0 0 0
SMALL
GASTEIGER
Energy = 0

@<TRIPOS>ATOM
      1 C           2.8490   -4.8196    0.1917 C.2     1  LIG11       0.3060
      2 C           2.2444   -5.4100    2.4671 C.3     1  LIG11       0.0416
      3 C           0.8424   -3.7465    1.1600 C.3     1  LIG11       0.0601
      4 C           1.0586   -2.2398    0.8853 C.3     1  LIG11       0.1016
      5 C           1.5355   -1.9766   -0.5702 C.3     1  LIG11       0.1016
      6 C           2.9386   -2.5751   -0.8436 C.3     1  LIG11       0.0601
      7 C           3.6363   -4.6747   -2.0968 C.3     1  LIG11       0.0416
      8 C           2.2944   -4.6210    3.7867 C.ar    1  LIG11      -0.0293
      9 C           1.4593   -4.9769    4.8487 C.ar    1  LIG11      -0.0449
     10 C           1.6142   -4.3827    6.1076 C.ar    1  LIG11       0.0374
     11 C           2.4578   -3.2782    6.2546 C.ar    1  LIG11      -0.0496
     12 C           3.2460   -2.8653    5.1789 C.ar    1  LIG11      -0.0607
     13 C           3.1894   -3.5606    3.9672 C.ar    1  LIG11      -0.0570
     14 C           0.9075   -4.9504    7.3179 C.2     1  LIG11       0.2493
     15 C           5.8671   -3.6707   -8.1835 C.ar    1  LIG11       0.1251
     16 N           6.9844   -4.4174   -8.0916 N.ar    1  LIG11      -0.2399
     17 C           7.8901   -4.4666   -9.0846 C.ar    1  LIG11       0.0326
     18 C          -0.2000   -4.3746    0.1904 C.3     1  LIG11      -0.0064
     19 C          -0.7711   -5.7123    0.6796 C.ar    1  LIG11      -0.0455
     20 C          -1.8610   -5.7237    1.5571 C.ar    1  LIG11      -0.0585
     21 C          -2.4040   -6.9351    1.9945 C.ar    1  LIG11      -0.0615
     22 C          -1.8580   -8.1445    1.5561 C.ar    1  LIG11      -0.0617
     23 C          -0.7728   -8.1392    0.6755 C.ar    1  LIG11      -0.0615
     24 C          -0.2284   -6.9267    0.2420 C.ar    1  LIG11      -0.0585
     25 C           4.0286   -1.9838    0.0978 C.3     1  LIG11      -0.0064
     26 C           5.4687   -2.2258   -0.3795 C.ar    1  LIG11      -0.0455
     27 C           6.0912   -1.2970   -1.2213 C.ar    1  LIG11      -0.0585
     28 C           7.4185   -1.4798   -1.6202 C.ar    1  LIG11      -0.0615
     29 C           8.1299   -2.6027   -1.1893 C.ar    1  LIG11      -0.0617
     30 C           7.5097   -3.5417   -0.3607 C.ar    1  LIG11      -0.0615
     31 C           6.1822   -3.3564    0.0378 C.ar    1  LIG11      -0.0585
     32 C           2.9046   -4.3599   -3.4121 C.ar    1  LIG11      -0.0293
     33 C           3.5946   -3.7801   -4.4794 C.ar    1  LIG11      -0.0449
     34 C           2.9673   -3.6093   -5.7186 C.ar    1  LIG11       0.0374
     35 C           1.5960   -3.8398   -5.8516 C.ar    1  LIG11      -0.0496
     36 C           0.8853   -4.3742   -4.7757 C.ar    1  LIG11      -0.0607
     37 C           1.5514   -4.6742   -3.5834 C.ar    1  LIG11      -0.0570
     38 C           3.7824   -3.2124   -6.9268 C.2     1  LIG11       0.2493
     39 C           7.7151   -3.6891  -10.2322 C.ar    1  LIG11      -0.0322
     40 C           6.5859   -2.8683  -10.3293 C.ar    1  LIG11      -0.0542
     41 C           5.6453   -2.8480   -9.2956 C.ar    1  LIG11      -0.0213
     42 N           2.0515   -4.5721    1.2717 N.am    1  LIG11      -0.2752
     43 N           3.0306   -4.0401   -0.9138 N.am    1  LIG11      -0.2752
     44 N           0.7807   -6.2934    7.3959 N.am    1  LIG11      -0.2664
     45 C           0.2851   -7.0337    8.4986 C.ar    1  LIG11       0.1251
     46 N           4.9789   -3.8190   -7.0881 N.am    1  LIG11      -0.2664
     47 N           0.5147   -8.3580    8.4158 N.ar    1  LIG11      -0.2399
     48 O           3.4749   -5.8665    0.2140 O.2     1  LIG11      -0.2524
     49 O          -0.1914   -1.5724    1.1588 O.3     1  LIG11      -0.3873
     50 O           1.5887   -0.5616   -0.8430 O.3     1  LIG11      -0.3873
     51 O           0.5281   -4.1629    8.1680 O.2     1  LIG11      -0.2698
     52 O           3.2932   -2.3917   -7.6835 O.2     1  LIG11      -0.2698
     53 C           0.2231   -9.1934    9.4278 C.ar    1  LIG11       0.0326
     54 C          -0.4078   -8.7086   10.5759 C.ar    1  LIG11      -0.0322
     55 C          -0.7212   -7.3464   10.6547 C.ar    1  LIG11      -0.0542
     56 C          -0.3819   -6.4887    9.6036 C.ar    1  LIG11      -0.0213
     57 H           3.1924   -5.9702    2.4847 H       1  LIG11       0.0514
     58 H           1.4344   -6.1555    2.4790 H       1  LIG11       0.0514
     59 H           0.3367   -3.7576    2.1415 H       1  LIG11       0.0531
     60 H           1.7900   -1.8741    1.6240 H       1  LIG11       0.0638
     61 H           0.8469   -2.4144   -1.3111 H       1  LIG11       0.0638
     62 H           3.2007   -2.1723   -1.8379 H       1  LIG11       0.0531
     63 H           3.6290   -5.7759   -2.0744 H       1  LIG11       0.0514
     64 H           4.6917   -4.3651   -2.1425 H       1  LIG11       0.0514
     65 H           0.6925   -5.7280    4.6943 H       1  LIG11       0.0628
     66 H           2.5132   -2.7553    7.2048 H       1  LIG11       0.0625
     67 H           3.9097   -2.0128    5.2906 H       1  LIG11       0.0618
     68 H           3.8587   -3.2773    3.1703 H       1  LIG11       0.0621
     69 H           8.7515   -5.1161   -8.9760 H       1  LIG11       0.0833
     70 C           8.7581   -3.7524  -11.3492 C.3     1  LIG11      -0.0383
     71 H           0.2696   -4.5570   -0.7762 H       1  LIG11       0.0332
     72 H          -1.0440   -3.6867    0.0218 H       1  LIG11       0.0332
     73 H          -2.2946   -4.7892    1.8994 H       1  LIG11       0.0620
     74 H          -3.2511   -6.9366    2.6737 H       1  LIG11       0.0618
     75 H          -2.2766   -9.0860    1.8985 H       1  LIG11       0.0618
     76 H          -0.3531   -9.0782    0.3273 H       1  LIG11       0.0618
     77 H           0.6168   -6.9370   -0.4396 H       1  LIG11       0.0620
     78 H           3.9476   -2.4365    1.0870 H       1  LIG11       0.0332
     79 H           3.8843   -0.8985    0.2210 H       1  LIG11       0.0332
     80 H           5.5472   -0.4233   -1.5655 H       1  LIG11       0.0620
     81 H           7.8980   -0.7481   -2.2634 H       1  LIG11       0.0618
     82 H           9.1616   -2.7445   -1.4974 H       1  LIG11       0.0618
     83 H           8.0613   -4.4150   -0.0254 H       1  LIG11       0.0618
     84 H           5.7117   -4.0966    0.6777 H       1  LIG11       0.0620
     85 H           4.6267   -3.4711   -4.3509 H       1  LIG11       0.0628
     86 H           1.0936   -3.6226   -6.7896 H       1  LIG11       0.0625
     87 H          -0.1791   -4.5668   -4.8729 H       1  LIG11       0.0618
     88 H           1.0086   -5.1709   -2.7945 H       1  LIG11       0.0621
     89 H           6.4347   -2.2454  -11.2051 H       1  LIG11       0.0622
     90 H           4.7845   -2.2021   -9.3945 H       1  LIG11       0.0652
     91 H           1.1564   -6.8553    6.6634 H       1  LIG11       0.1566
     92 H           5.2652   -4.4925   -6.4096 H       1  LIG11       0.1566
     93 H           0.4854  -10.2413    9.3345 H       1  LIG11       0.0833
     94 H          -0.1151   -0.6258    1.2329 H       1  LIG11       0.2100
     95 H           0.7302   -0.1492   -0.8736 H       1  LIG11       0.2100
     96 C          -0.7359   -9.6856   11.7062 C.3     1  LIG11      -0.0383
     97 H          -1.2280   -6.9508   11.5290 H       1  LIG11       0.0622
     98 H          -0.6472   -5.4425    9.6755 H       1  LIG11       0.0652
     99 H           9.6163   -3.1288  -11.0586 H       1  LIG11       0.0278
    100 H           8.3468   -3.3854  -12.3007 H       1  LIG11       0.0278
    101 H           9.0955   -4.7906  -11.4895 H       1  LIG11       0.0278
    102 H          -1.5575  -10.3383   11.3754 H       1  LIG11       0.0278
    103 H          -1.0375   -9.1594   12.6232 H       1  LIG11       0.0278
    104 H           0.1490  -10.3020   11.9264 H       1  LIG11       0.0278
@<TRIPOS>BOND
     1   100    70    1
     2   101    70    1
     3    70    99    1
     4    70    39    1
     5    89    40    1
     6    40    39   ar
     7    40    41   ar
     8    39    17   ar
     9    90    41    1
    10    41    15   ar
    11    17    69    1
    12    17    16   ar
    13    15    16   ar
    14    15    46    1
    15    52    38    2
    16    46    38   am
    17    46    92    1
    18    38    34    1
    19    86    35    1
    20    35    34   ar
    21    35    36   ar
    22    34    33   ar
    23    87    36    1
    24    36    37   ar
    25    33    85    1
    26    33    32   ar
    27    37    32   ar
    28    37    88    1
    29    32     7    1
    30    81    28    1
    31    64     7    1
    32     7    63    1
    33     7    43    1
    34    62     6    1
    35    28    27   ar
    36    28    29   ar
    37    80    27    1
    38    82    29    1
    39    61     5    1
    40    27    26   ar
    41    29    30   ar
    42    43     6    1
    43    43     1   am
    44    95    50    1
    45     6     5    1
    46     6    25    1
    47    50     5    1
    48    71    18    1
    49     5     4    1
    50    77    24    1
    51    26    31   ar
    52    26    25    1
    53    30    83    1
    54    30    31   ar
    55    72    18    1
    56    31    84    1
    57    25    79    1
    58    25    78    1
    59    18    19    1
    60    18     3    1
    61     1    48    2
    62     1    42   am
    63    24    23   ar
    64    24    19   ar
    65    76    23    1
    66    23    22   ar
    67    19    20   ar
    68     4    49    1
    69     4     3    1
    70     4    60    1
    71    49    94    1
    72     3    42    1
    73     3    59    1
    74    42     2    1
    75    22    75    1
    76    22    21   ar
    77    20    73    1
    78    20    21   ar
    79    21    74    1
    80     2    58    1
    81     2    57    1
    82     2     8    1
    83    68    13    1
    84     8    13   ar
    85     8     9   ar
    86    13    12   ar
    87    65     9    1
    88     9    10   ar
    89    12    67    1
    90    12    11   ar
    91    10    11   ar
    92    10    14    1
    93    11    66    1
    94    91    44    1
    95    14    44   am
    96    14    51    2
    97    44    45    1
    98    47    45   ar
    99    47    53   ar
   100    45    56   ar
   101    93    53    1
   102    53    54   ar
   103    56    98    1
   104    56    55   ar
   105    54    55   ar
   106    54    96    1
   107    55    97    1
   108   102    96    1
   109    96   104    1
   110    96   103    1
