@<TRIPOS>MOLECULE
Mol_48
 72 76 0 0 0
SMALL
GASTEIGER
Energy = 0

@<TRIPOS>ATOM
      1 C           2.9571   -4.8385    0.1330 C.2     1  LIG11       0.3060
      2 C           2.4764   -5.2949    2.4772 C.3     1  LIG11       0.0443
      3 C           0.9614   -3.7752    1.1069 C.3     1  LIG11       0.0602
      4 C           1.1295   -2.2644    0.8160 C.3     1  LIG11       0.1016
      5 C           1.6231   -1.9983   -0.6325 C.3     1  LIG11       0.1016
      6 C           3.0287   -2.5988   -0.8848 C.3     1  LIG11       0.0602
      7 C           3.6221   -4.6948   -2.2048 C.3     1  LIG11       0.0443
      8 C           2.5304   -4.3785    3.7141 C.ar    1  LIG11       0.0051
      9 C           1.4511   -4.2963    4.6042 C.ar    1  LIG11      -0.0543
     10 C           1.5098   -3.4549    5.7194 C.ar    1  LIG11      -0.0613
     11 C           2.6401   -2.6639    5.9439 C.ar    1  LIG11      -0.0590
     12 C           3.7250   -2.7494    5.0682 C.ar    1  LIG11      -0.0261
     13 C           3.6789   -3.6221    3.9764 C.ar    1  LIG11       0.1281
     14 H           3.4437   -5.8223    2.4719 H       1  LIG11       0.0515
     15 F           1.0060   -5.6516   -2.7952 F       1  LIG11      -0.2051
     16 F           4.7461   -3.7330    3.1899 F       1  LIG11      -0.2051
     17 H           1.6980   -6.0633    2.6035 H       1  LIG11       0.0515
     18 C          -0.0594   -4.4589    0.1520 C.3     1  LIG11      -0.0064
     19 C          -0.5171   -5.8414    0.6428 C.ar    1  LIG11      -0.0455
     20 C          -1.5300   -5.9420    1.6030 C.ar    1  LIG11      -0.0585
     21 C          -1.9845   -7.1952    2.0261 C.ar    1  LIG11      -0.0615
     22 C          -1.4270   -8.3590    1.4908 C.ar    1  LIG11      -0.0617
     23 C          -0.4089   -8.2658    0.5378 C.ar    1  LIG11      -0.0615
     24 C           0.0526   -7.0123    0.1265 C.ar    1  LIG11      -0.0585
     25 C           4.1153   -2.0401    0.0829 C.3     1  LIG11      -0.0064
     26 C           5.5451   -2.2900   -0.4270 C.ar    1  LIG11      -0.0455
     27 C           6.1695   -1.3624   -1.2702 C.ar    1  LIG11      -0.0585
     28 C           7.4792   -1.5726   -1.7131 C.ar    1  LIG11      -0.0615
     29 C           8.1737   -2.7205   -1.3226 C.ar    1  LIG11      -0.0617
     30 C           7.5558   -3.6524   -0.4843 C.ar    1  LIG11      -0.0615
     31 C           6.2469   -3.4385   -0.0414 C.ar    1  LIG11      -0.0585
     32 C           2.8300   -4.3074   -3.4673 C.ar    1  LIG11       0.0051
     33 C           3.3944   -3.4987   -4.4622 C.ar    1  LIG11      -0.0543
     34 C           2.6541   -3.1434   -5.5945 C.ar    1  LIG11      -0.0613
     35 C           1.3258   -3.5579   -5.7265 C.ar    1  LIG11      -0.0590
     36 C           0.7572   -4.3669   -4.7406 C.ar    1  LIG11      -0.0261
     37 C           1.5262   -4.7822   -3.6504 C.ar    1  LIG11       0.1281
     38 H           0.4498   -3.7899    2.0835 H       1  LIG11       0.0531
     39 H           1.8434   -1.8675    1.5565 H       1  LIG11       0.0638
     40 H           0.9415   -2.4400   -1.3780 H       1  LIG11       0.0638
     41 H           3.3086   -2.1818   -1.8682 H       1  LIG11       0.0531
     42 N           2.1997   -4.5546    1.2325 N.am    1  LIG11      -0.2751
     43 N           3.0963   -4.0626   -0.9811 N.am    1  LIG11      -0.2751
     44 H           3.5821   -5.7955   -2.1838 H       1  LIG11       0.0515
     45 H           4.6817   -4.4147   -2.3098 H       1  LIG11       0.0515
     46 H           0.5579   -4.8898    4.4375 H       1  LIG11       0.0622
     47 H           0.6765   -3.4143    6.4150 H       1  LIG11       0.0618
     48 O           3.5735   -5.8911    0.1473 O.2     1  LIG11      -0.2524
     49 O          -0.1448   -1.6341    1.0623 O.3     1  LIG11      -0.3873
     50 O           1.6857   -0.5840   -0.9100 O.3     1  LIG11      -0.3873
     51 H           2.6750   -1.9890    6.7946 H       1  LIG11       0.0618
     52 H           4.6080   -2.1406    5.2342 H       1  LIG11       0.0646
     53 H           0.3886   -4.5817   -0.8361 H       1  LIG11       0.0332
     54 H          -0.9566   -3.8314    0.0276 H       1  LIG11       0.0332
     55 H          -1.9734   -5.0446    2.0224 H       1  LIG11       0.0620
     56 H          -2.7726   -7.2648    2.7697 H       1  LIG11       0.0618
     57 H          -1.7830   -9.3328    1.8136 H       1  LIG11       0.0618
     58 H           0.0229   -9.1686    0.1162 H       1  LIG11       0.0618
     59 H           0.8558   -6.9579   -0.6008 H       1  LIG11       0.0620
     60 H           4.0266   -2.4980    1.0771 H       1  LIG11       0.0332
     61 H           3.9844   -0.9532    0.2084 H       1  LIG11       0.0332
     62 H           5.6411   -0.4679   -1.5842 H       1  LIG11       0.0620
     63 H           7.9593   -0.8439   -2.3597 H       1  LIG11       0.0618
     64 H           9.1896   -2.8874   -1.6687 H       1  LIG11       0.0618
     65 H           8.0946   -4.5432   -0.1759 H       1  LIG11       0.0618
     66 H           5.7796   -4.1716    0.6084 H       1  LIG11       0.0620
     67 H           4.4158   -3.1450   -4.3663 H       1  LIG11       0.0622
     68 H           3.1108   -2.5438   -6.3762 H       1  LIG11       0.0618
     69 H           0.7404   -3.2571   -6.5906 H       1  LIG11       0.0618
     70 H          -0.2788   -4.6811   -4.8199 H       1  LIG11       0.0646
     71 H          -0.1007   -0.6839    1.1071 H       1  LIG11       0.2100
     72 H           0.8299   -0.1691   -0.9685 H       1  LIG11       0.2100
@<TRIPOS>BOND
     1    69    35    1
     2    68    34    1
     3    35    34   ar
     4    35    36   ar
     5    34    33   ar
     6    70    36    1
     7    36    37   ar
     8    33    67    1
     9    33    32   ar
    10    37    32   ar
    11    37    15    1
    12    32     7    1
    13    63    28    1
    14    45     7    1
    15     7    44    1
    16     7    43    1
    17    41     6    1
    18    28    29   ar
    19    28    27   ar
    20    64    29    1
    21    62    27    1
    22    40     5    1
    23    29    30   ar
    24    27    26   ar
    25    43     6    1
    26    43     1   am
    27    72    50    1
    28    50     5    1
    29     6     5    1
    30     6    25    1
    31    53    18    1
    32     5     4    1
    33    59    24    1
    34    30    65    1
    35    30    31   ar
    36    26    31   ar
    37    26    25    1
    38    31    66    1
    39    54    18    1
    40    25    61    1
    41    25    60    1
    42    58    23    1
    43    24    23   ar
    44    24    19   ar
    45     1    48    2
    46     1    42   am
    47    18    19    1
    48    18     3    1
    49    23    22   ar
    50    19    20   ar
    51     4    49    1
    52     4     3    1
    53     4    39    1
    54    49    71    1
    55     3    42    1
    56     3    38    1
    57    42     2    1
    58    22    57    1
    59    22    21   ar
    60    20    55    1
    61    20    21   ar
    62    21    56    1
    63    14     2    1
    64     2    17    1
    65     2     8    1
    66    16    13    1
    67     8    13   ar
    68     8     9   ar
    69    13    12   ar
    70    46     9    1
    71     9    10   ar
    72    12    52    1
    73    12    11   ar
    74    10    11   ar
    75    10    47    1
    76    11    51    1
