@<TRIPOS>MOLECULE
Mol_110
 90 94 0 0 0
SMALL
GASTEIGER
Energy = 0

@<TRIPOS>ATOM
      1 C           3.2530   -4.9467    0.0203 C.2     1  LIG11       0.3060
      2 C           3.8946   -4.6549   -2.2996 C.3     1  LIG11       0.0416
      3 C           3.0910   -2.6759   -0.9147 C.3     1  LIG11       0.0601
      4 C           1.6526   -2.1947   -0.5958 C.3     1  LIG11       0.1016
      5 C           1.1827   -2.6082    0.8230 C.3     1  LIG11       0.1016
      6 C           1.1524   -4.1447    1.0125 C.3     1  LIG11       0.0601
      7 C           2.8160   -5.5614    2.3184 C.3     1  LIG11       0.0416
      8 C           3.1193   -4.3024   -3.5816 C.ar    1  LIG11      -0.0293
      9 C           3.8135   -4.0500   -4.7680 C.ar    1  LIG11      -0.0449
     10 C           3.1243   -3.7386   -5.9462 C.ar    1  LIG11       0.0370
     11 C           1.7279   -3.6825   -5.9523 C.ar    1  LIG11      -0.0496
     12 C           1.0231   -3.9179   -4.7722 C.ar    1  LIG11      -0.0607
     13 C           1.7216   -4.2462   -3.6090 C.ar    1  LIG11      -0.0570
     14 C           3.8798   -3.4567   -7.2236 C.2     1  LIG11       0.2448
     15 C           6.5896   -3.5781   -8.7584 C.1     1  LIG11       0.0815
     16 C           5.7339   -2.4456   -8.4247 C.3     1  LIG11       0.0993
     17 N           7.2760   -4.4715   -9.0253 N.1     1  LIG11      -0.1949
     18 C           4.1536   -2.0597    0.0420 C.3     1  LIG11      -0.0064
     19 C           5.5916   -2.2764   -0.4555 C.ar    1  LIG11      -0.0455
     20 C           6.2300   -1.2996   -1.2289 C.ar    1  LIG11      -0.0585
     21 C           7.5466   -1.4868   -1.6609 C.ar    1  LIG11      -0.0615
     22 C           8.2312   -2.6608   -1.3352 C.ar    1  LIG11      -0.0617
     23 C           7.5961   -3.6454   -0.5744 C.ar    1  LIG11      -0.0615
     24 C           6.2870   -3.4466   -0.1279 C.ar    1  LIG11      -0.0585
     25 C           0.2413   -4.9078    0.0024 C.3     1  LIG11      -0.0064
     26 C          -0.5759   -6.0400    0.6390 C.ar    1  LIG11      -0.0455
     27 C          -0.1842   -7.3780    0.5087 C.ar    1  LIG11      -0.0585
     28 C          -0.9601   -8.3957    1.0705 C.ar    1  LIG11      -0.0615
     29 C          -2.1244   -8.0796    1.7759 C.ar    1  LIG11      -0.0617
     30 C          -2.5152   -6.7449    1.9139 C.ar    1  LIG11      -0.0615
     31 C          -1.7429   -5.7287    1.3451 C.ar    1  LIG11      -0.0585
     32 C           2.5778   -4.7528    3.6023 C.ar    1  LIG11      -0.0293
     33 C           3.3282   -3.6040    3.8805 C.ar    1  LIG11      -0.0570
     34 C           3.0614   -2.8362    5.0185 C.ar    1  LIG11      -0.0607
     35 C           2.0839   -3.2518    5.9256 C.ar    1  LIG11      -0.0496
     36 C           1.3861   -4.4400    5.6922 C.ar    1  LIG11       0.0370
     37 C           1.6045   -5.1636    4.5165 C.ar    1  LIG11      -0.0449
     38 O          -0.3923   -4.1877    7.2147 O.2     1  LIG11      -0.2702
     39 C          -0.4435   -6.7771    8.0933 C.3     1  LIG11       0.1091
     40 C           0.4021   -4.9644    6.7105 C.2     1  LIG11       0.2445
     41 N           0.4378   -6.2710    7.0454 N.am    1  LIG11      -0.3009
     42 N           3.2999   -4.1220   -1.0636 N.am    1  LIG11      -0.2752
     43 N           2.4673   -4.7888    1.1203 N.am    1  LIG11      -0.2752
     44 N           5.0018   -2.7093   -7.1903 N.am    1  LIG11      -0.2985
     45 C           0.1333   -6.4682    9.4505 C.2     1  LIG11       0.3221
     46 O           1.1625   -5.6193    9.4816 O.3     1  LIG11      -0.4795
     47 O          -0.3213   -6.9730   10.4646 O.2     1  LIG11      -0.2492
     48 O           3.9792   -5.9271    0.0054 O.2     1  LIG11      -0.2524
     49 O           1.6212   -0.7619   -0.7622 O.3     1  LIG11      -0.3873
     50 O          -0.1443   -2.1115    1.0945 O.3     1  LIG11      -0.3873
     51 O           3.4412   -3.9068   -8.2692 O.2     1  LIG11      -0.2702
     52 H           3.9420   -5.7552   -2.3229 H       1  LIG11       0.0514
     53 H           4.9273   -4.2793   -2.3645 H       1  LIG11       0.0514
     54 H           3.3085   -2.2047   -1.8896 H       1  LIG11       0.0531
     55 H           0.9797   -2.6191   -1.3535 H       1  LIG11       0.0638
     56 H           1.8590   -2.1995    1.5920 H       1  LIG11       0.0638
     57 H           0.6305   -4.2515    1.9781 H       1  LIG11       0.0531
     58 H           3.8773   -5.8546    2.3606 H       1  LIG11       0.0514
     59 H           2.2178   -6.4861    2.3060 H       1  LIG11       0.0514
     60 H           4.8959   -4.1123   -4.7781 H       1  LIG11       0.0628
     61 H           1.1920   -3.4517   -6.8676 H       1  LIG11       0.0625
     62 H          -0.0612   -3.8494   -4.7582 H       1  LIG11       0.0618
     63 H           1.1504   -4.4680   -2.7304 H       1  LIG11       0.0621
     64 H           6.3830   -1.5635   -8.3113 H       1  LIG11       0.0620
     65 H           5.0505   -2.2610   -9.2684 H       1  LIG11       0.0620
     66 H           4.0858   -2.5177    1.0330 H       1  LIG11       0.0332
     67 H           3.9788   -0.9792    0.1680 H       1  LIG11       0.0332
     68 H           5.7078   -0.3862   -1.4953 H       1  LIG11       0.0620
     69 H           8.0399   -0.7190   -2.2492 H       1  LIG11       0.0618
     70 H           9.2534   -2.8077   -1.6705 H       1  LIG11       0.0618
     71 H           8.1197   -4.5643   -0.3280 H       1  LIG11       0.0618
     72 H           5.8177   -4.2119    0.4793 H       1  LIG11       0.0620
     73 H           0.8600   -5.3738   -0.7685 H       1  LIG11       0.0332
     74 H          -0.4842   -4.2400   -0.4870 H       1  LIG11       0.0332
     75 H           0.7207   -7.6382   -0.0322 H       1  LIG11       0.0620
     76 H          -0.6583   -9.4326    0.9576 H       1  LIG11       0.0618
     77 H          -2.7248   -8.8698    2.2157 H       1  LIG11       0.0618
     78 H          -3.4191   -6.4968    2.4616 H       1  LIG11       0.0618
     79 H          -2.0553   -4.6940    1.4504 H       1  LIG11       0.0620
     80 H           4.1286   -3.3038    3.2170 H       1  LIG11       0.0621
     81 H           3.6167   -1.9208    5.2025 H       1  LIG11       0.0618
     82 H           1.8745   -2.6642    6.8145 H       1  LIG11       0.0625
     83 H           1.0087   -6.0478    4.3170 H       1  LIG11       0.0628
     84 H          -0.5531   -7.8699    8.0087 H       1  LIG11       0.0577
     85 H          -1.4478   -6.3310    8.0243 H       1  LIG11       0.0577
     86 H           1.1376   -6.8788    6.6662 H       1  LIG11       0.1496
     87 H           5.3431   -2.3261   -6.3307 H       1  LIG11       0.1500
     88 H           1.4558   -5.4647   10.3719 H       1  LIG11       0.2951
     89 H           0.7423   -0.3947   -0.7760 H       1  LIG11       0.2100
     90 H          -0.1830   -1.1666    1.2074 H       1  LIG11       0.2100
@<TRIPOS>BOND
     1    65    16    1
     2    17    15    3
     3    15    16    1
     4    16    64    1
     5    16    44    1
     6    51    14    2
     7    14    44   am
     8    14    10    1
     9    44    87    1
    10    61    11    1
    11    11    10   ar
    12    11    12   ar
    13    10     9   ar
    14    60     9    1
    15    12    62    1
    16    12    13   ar
    17     9     8   ar
    18    13     8   ar
    19    13    63    1
    20     8     2    1
    21    53     2    1
    22    52     2    1
    23     2    42    1
    24    69    21    1
    25    54     3    1
    26    70    22    1
    27    21    22   ar
    28    21    20   ar
    29    68    20    1
    30    55     4    1
    31    22    23   ar
    32    20    19   ar
    33    42     3    1
    34    42     1   am
    35     3     4    1
    36     3    18    1
    37    89    49    1
    38    73    25    1
    39    49     4    1
    40     4     5    1
    41    23    71    1
    42    23    24   ar
    43    74    25    1
    44    19    24   ar
    45    19    18    1
    46    24    72    1
    47    75    27    1
    48    25    26    1
    49    25     6    1
    50    48     1    2
    51     1    43   am
    52    18    67    1
    53    18    66    1
    54    27    26   ar
    55    27    28   ar
    56    26    31   ar
    57     5     6    1
    58     5    50    1
    59     5    56    1
    60    76    28    1
    61     6    43    1
    62     6    57    1
    63    28    29   ar
    64    50    90    1
    65    43     7    1
    66    31    79    1
    67    31    30   ar
    68    29    30   ar
    69    29    77    1
    70    30    78    1
    71    59     7    1
    72     7    58    1
    73     7    32    1
    74    80    33    1
    75    32    33   ar
    76    32    37   ar
    77    33    34   ar
    78    83    37    1
    79    37    36   ar
    80    34    81    1
    81    34    35   ar
    82    36    35   ar
    83    36    40    1
    84    35    82    1
    85    86    41    1
    86    40    41   am
    87    40    38    2
    88    41    39    1
    89    84    39    1
    90    85    39    1
    91    39    45    1
    92    45    46    1
    93    45    47    2
    94    46    88    1
