@<TRIPOS>MOLECULE
Mol_15
 68 70 0 0 0
SMALL
GASTEIGER
Energy = 0

@<TRIPOS>ATOM
      1 C           2.7299   -4.7272   -0.0233 C.2     1  LIG11       0.3131
      2 C           2.9408   -4.5061   -2.3482 C.2     1  LIG11       0.0014
      3 C           2.9315   -2.4623   -0.9525 C.3     1  LIG11       0.0643
      4 C           1.5841   -1.7478   -0.7005 C.3     1  LIG11       0.1020
      5 C           1.0349   -2.0227    0.7217 C.3     1  LIG11       0.1020
      6 C           0.8531   -3.5354    1.0176 C.3     1  LIG11       0.0643
      7 C           2.4433   -4.9012    2.2878 C.2     1  LIG11       0.0014
      8 C           2.6227   -3.9437   -3.5259 C.2     1  LIG11      -0.0452
      9 H           3.2851   -5.5390   -2.3913 H       1  LIG11       0.0785
     10 C           3.7419   -5.5113   -5.0762 C.2     1  LIG11      -0.0957
     11 C           1.8412   -4.2093   -5.9668 C.3     1  LIG11      -0.0402
     12 C           2.5191   -5.7264    5.2138 C.2     1  LIG11      -0.0957
     13 C           4.2514   -3.9774    5.4506 C.3     1  LIG11      -0.0402
     14 H           3.3206   -1.9984   -1.8740 H       1  LIG11       0.0534
     15 H           0.8742   -2.0956   -1.4682 H       1  LIG11       0.0639
     16 H           1.7281   -1.6197    1.4749 H       1  LIG11       0.0639
     17 H           0.3378   -3.5657    1.9948 H       1  LIG11       0.0534
     18 C           4.0298   -2.0469    0.0825 C.3     1  LIG11      -0.0061
     19 C           5.4541   -2.2638   -0.4602 C.ar    1  LIG11      -0.0455
     20 C           6.0697   -3.5160   -0.3611 C.ar    1  LIG11      -0.0585
     21 C           7.3643   -3.7117   -0.8550 C.ar    1  LIG11      -0.0615
     22 C           8.0549   -2.6548   -1.4521 C.ar    1  LIG11      -0.0617
     23 C           7.4498   -1.3982   -1.5479 C.ar    1  LIG11      -0.0615
     24 C           6.1575   -1.2055   -1.0526 C.ar    1  LIG11      -0.0585
     25 C          -0.1556   -4.2114    0.0262 C.3     1  LIG11      -0.0061
     26 C          -0.6356   -5.5977    0.4843 C.ar    1  LIG11      -0.0455
     27 C          -1.6875   -5.7074    1.4040 C.ar    1  LIG11      -0.0585
     28 C          -2.1463   -6.9622    1.8120 C.ar    1  LIG11      -0.0615
     29 C          -1.5552   -8.1223    1.3021 C.ar    1  LIG11      -0.0617
     30 C          -0.5123   -8.0207    0.3792 C.ar    1  LIG11      -0.0615
     31 C          -0.0540   -6.7627   -0.0272 C.ar    1  LIG11      -0.0585
     32 C           2.7417   -4.1465    3.3551 C.2     1  LIG11      -0.0452
     33 C           3.1409   -4.6654    4.6835 C.2     1  LIG11      -0.0563
     34 C           2.7866   -4.5977   -4.8486 C.2     1  LIG11      -0.0563
     35 H           2.5382   -5.9867    2.3584 H       1  LIG11       0.0785
     36 H           2.1711   -2.9541   -3.5678 H       1  LIG11       0.0633
     37 H           4.4675   -5.8168   -4.3253 H       1  LIG11       0.0537
     38 H           3.8482   -5.9961   -6.0457 H       1  LIG11       0.0537
     39 H           1.9359   -4.8586   -6.8514 H       1  LIG11       0.0277
     40 H           2.0477   -3.1752   -6.2800 H       1  LIG11       0.0277
     41 H           0.8000   -4.2715   -5.6164 H       1  LIG11       0.0277
     42 N           2.8195   -3.9270   -1.1190 N.am    1  LIG11      -0.2557
     43 N           2.0949   -4.3311    1.1055 N.am    1  LIG11      -0.2557
     44 H           1.7071   -6.2305    4.6921 H       1  LIG11       0.0537
     45 H           2.7990   -6.1172    6.1920 H       1  LIG11       0.0537
     46 H           4.1385   -4.1042    6.5387 H       1  LIG11       0.0277
     47 H           4.2708   -2.8980    5.2394 H       1  LIG11       0.0277
     48 O           3.2327   -5.8386   -0.0442 O.2     1  LIG11      -0.2517
     49 O           1.7657   -0.3303   -0.8822 O.3     1  LIG11      -0.3873
     50 O          -0.1731   -1.2602    0.9255 O.3     1  LIG11      -0.3873
     51 H           5.2191   -4.4083    5.1511 H       1  LIG11       0.0277
     52 H           3.9434   -2.5981    1.0284 H       1  LIG11       0.0332
     53 H           3.9293   -0.9779    0.3321 H       1  LIG11       0.0332
     54 H           5.5477   -4.3460    0.1029 H       1  LIG11       0.0620
     55 H           7.8346   -4.6870   -0.7740 H       1  LIG11       0.0618
     56 H           9.0577   -2.8069   -1.8406 H       1  LIG11       0.0618
     57 H           7.9860   -0.5730   -2.0077 H       1  LIG11       0.0618
     58 H           5.7050   -0.2220   -1.1315 H       1  LIG11       0.0620
     59 H           0.2692   -4.3143   -0.9822 H       1  LIG11       0.0332
     60 H          -1.0732   -3.6171   -0.0843 H       1  LIG11       0.0332
     61 H          -2.1602   -4.8152    1.8029 H       1  LIG11       0.0620
     62 H          -2.9629   -7.0389    2.5240 H       1  LIG11       0.0618
     63 H          -1.9070   -9.0984    1.6228 H       1  LIG11       0.0618
     64 H          -0.0572   -8.9199   -0.0250 H       1  LIG11       0.0618
     65 H           0.7533   -6.7027   -0.7497 H       1  LIG11       0.0620
     66 H           2.7369   -3.0640    3.2444 H       1  LIG11       0.0633
     67 H           0.9543    0.1610   -0.7827 H       1  LIG11       0.2100
     68 H          -0.8478   -1.3787    0.2652 H       1  LIG11       0.2100
@<TRIPOS>BOND
     1    39    11    1
     2    40    11    1
     3    38    10    1
     4    11    41    1
     5    11    34    1
     6    10    34    2
     7    10    37    1
     8    34     8    1
     9    36     8    1
    10     8     2    2
    11     9     2    1
    12     2    42    1
    13    57    23    1
    14    14     3    1
    15    56    22    1
    16    23    22   ar
    17    23    24   ar
    18    15     4    1
    19    22    21   ar
    20    58    24    1
    21    42     3    1
    22    42     1   am
    23    24    19   ar
    24    59    25    1
    25     3     4    1
    26     3    18    1
    27    49    67    1
    28    49     4    1
    29    21    55    1
    30    21    20   ar
    31    65    31    1
    32     4     5    1
    33    19    20   ar
    34    19    18    1
    35    20    54    1
    36    60    25    1
    37    48     1    2
    38    31    30   ar
    39    31    26   ar
    40    64    30    1
    41     1    43   am
    42    25    26    1
    43    25     6    1
    44    18    53    1
    45    18    52    1
    46    68    50    1
    47    30    29   ar
    48    26    27   ar
    49     5    50    1
    50     5     6    1
    51     5    16    1
    52     6    43    1
    53     6    17    1
    54    43     7    1
    55    29    63    1
    56    29    28   ar
    57    27    61    1
    58    27    28   ar
    59    28    62    1
    60     7    35    1
    61     7    32    2
    62    66    32    1
    63    32    33    1
    64    33    12    2
    65    33    13    1
    66    44    12    1
    67    51    13    1
    68    12    45    1
    69    47    13    1
    70    13    46    1
