@<TRIPOS>MOLECULE
Mol_16
 68 70 0 0 0
SMALL
GASTEIGER
Energy = 0

@<TRIPOS>ATOM
      1 C           2.7685   -4.6040    0.2877 C.2     1  LIG11       0.3056
      2 C           3.5287   -4.4549   -2.0233 C.3     1  LIG11       0.0507
      3 C           2.9052   -2.3591   -0.7113 C.3     1  LIG11       0.0599
      4 C           1.4892   -1.7499   -0.5710 C.3     1  LIG11       0.1016
      5 C           0.8940   -2.0382    0.8289 C.3     1  LIG11       0.1016
      6 C           0.6769   -3.5536    1.0578 C.3     1  LIG11       0.0599
      7 C           2.0492   -5.0577    2.5813 C.3     1  LIG11       0.0507
      8 C           2.6120   -4.2282   -3.2540 C.3     1  LIG11       0.1044
      9 O           3.3392   -4.6327   -4.4312 O.2     1  LIG11      -0.4985
     10 C           2.7622   -4.2545   -5.5816 C.2     1  LIG11       0.0775
     11 C           3.4540   -4.3490   -6.7213 C.2     1  LIG11      -0.0642
     12 H           3.6675   -5.5462   -1.9479 H       1  LIG11       0.0499
     13 H           4.5196   -4.0189   -2.2295 H       1  LIG11       0.0499
     14 H           3.2705   -1.9169   -1.6535 H       1  LIG11       0.0530
     15 H           0.8538   -2.1771   -1.3642 H       1  LIG11       0.0638
     16 H           1.5752   -1.6807    1.6186 H       1  LIG11       0.0638
     17 H           0.0660   -3.5690    1.9766 H       1  LIG11       0.0530
     18 C           3.9280   -1.8114    0.3269 C.3     1  LIG11      -0.0064
     19 C           5.3744   -1.9646   -0.1734 C.ar    1  LIG11      -0.0455
     20 C           6.1228   -3.1022    0.1470 C.ar    1  LIG11      -0.0585
     21 C           7.4472   -3.2230   -0.2871 C.ar    1  LIG11      -0.0615
     22 C           8.0279   -2.2130   -1.0580 C.ar    1  LIG11      -0.0617
     23 C           7.2818   -1.0788   -1.3917 C.ar    1  LIG11      -0.0615
     24 C           5.9609   -0.9578   -0.9517 C.ar    1  LIG11      -0.0585
     25 C          -0.2511   -4.2343    0.0101 C.3     1  LIG11      -0.0064
     26 C          -0.7733   -5.5900    0.5162 C.ar    1  LIG11      -0.0455
     27 C          -1.8620   -5.6428    1.3962 C.ar    1  LIG11      -0.0585
     28 C          -2.3523   -6.8718    1.8472 C.ar    1  LIG11      -0.0615
     29 C          -1.7589   -8.0619    1.4168 C.ar    1  LIG11      -0.0617
     30 C          -0.6731   -8.0168    0.5390 C.ar    1  LIG11      -0.0615
     31 C          -0.1770   -6.7854    0.0986 C.ar    1  LIG11      -0.0585
     32 C           2.3671   -4.0540    3.7193 C.3     1  LIG11       0.1044
     33 O           2.3686   -4.7487    4.9836 O.2     1  LIG11      -0.4985
     34 C           2.6585   -3.9600    6.0310 C.2     1  LIG11       0.0775
     35 C           2.6123   -4.4618    7.2695 C.2     1  LIG11      -0.0642
     36 H           2.8550   -5.8092    2.5965 H       1  LIG11       0.0499
     37 H           1.1173   -5.5948    2.8208 H       1  LIG11       0.0499
     38 H           2.3772   -3.1574   -3.3418 H       1  LIG11       0.0712
     39 H           1.6664   -4.7841   -3.1407 H       1  LIG11       0.0712
     40 H           1.7489   -3.8471   -5.6348 H       1  LIG11       0.1017
     41 H           3.0281   -4.0198   -7.6692 H       1  LIG11       0.0565
     42 N           2.9716   -3.8250   -0.8129 N.am    1  LIG11      -0.2763
     43 N           1.8904   -4.3450    1.2997 N.am    1  LIG11      -0.2763
     44 H           4.4677   -4.7493   -6.7156 H       1  LIG11       0.0565
     45 H           3.8301   -2.3303    1.2904 H       1  LIG11       0.0332
     46 H           3.7463   -0.7398    0.5074 H       1  LIG11       0.0332
     47 H           5.6798   -3.8988    0.7362 H       1  LIG11       0.0620
     48 O           3.4345   -5.6219    0.3680 O.2     1  LIG11      -0.2524
     49 O           1.5882   -0.3321   -0.8166 O.3     1  LIG11      -0.3873
     50 O          -0.3719   -1.3716    1.0125 O.3     1  LIG11      -0.3873
     51 H           8.0260   -4.1032   -0.0244 H       1  LIG11       0.0618
     52 H           9.0551   -2.3075   -1.3974 H       1  LIG11       0.0618
     53 H           7.7304   -0.2927   -1.9921 H       1  LIG11       0.0618
     54 H           5.3924   -0.0724   -1.2187 H       1  LIG11       0.0620
     55 H           0.2793   -4.3951   -0.9384 H       1  LIG11       0.0332
     56 H          -1.1215   -3.5908   -0.1973 H       1  LIG11       0.0332
     57 H          -2.3355   -4.7262    1.7338 H       1  LIG11       0.0620
     58 H          -3.1951   -6.9046    2.5315 H       1  LIG11       0.0618
     59 H          -2.1407   -9.0178    1.7635 H       1  LIG11       0.0618
     60 H          -0.2142   -8.9399    0.1982 H       1  LIG11       0.0618
     61 H           0.6755   -6.7665   -0.5728 H       1  LIG11       0.0620
     62 H           1.6035   -3.2611    3.7521 H       1  LIG11       0.0712
     63 H           3.3484   -3.5939    3.5164 H       1  LIG11       0.0712
     64 H           2.9338   -2.9073    5.9244 H       1  LIG11       0.1017
     65 H           2.3391   -5.5033    7.4373 H       1  LIG11       0.0565
     66 H           2.8438   -3.8402    8.1352 H       1  LIG11       0.0565
     67 H           0.7442    0.0992   -0.9106 H       1  LIG11       0.2100
     68 H          -0.2976   -0.4253    1.0945 H       1  LIG11       0.2100
@<TRIPOS>BOND
     1    41    11    1
     2    11    44    1
     3    11    10    2
     4    40    10    1
     5    10     9    1
     6     9     8    1
     7    38     8    1
     8     8    39    1
     9     8     2    1
    10    13     2    1
    11     2    12    1
    12     2    42    1
    13    53    23    1
    14    14     3    1
    15    52    22    1
    16    23    22   ar
    17    23    24   ar
    18    15     4    1
    19    54    24    1
    20    22    21   ar
    21    24    19   ar
    22    55    25    1
    23    67    49    1
    24    49     4    1
    25    42     3    1
    26    42     1   am
    27     3     4    1
    28     3    18    1
    29    61    31    1
    30     4     5    1
    31    21    51    1
    32    21    20   ar
    33    56    25    1
    34    19    20   ar
    35    19    18    1
    36    25    26    1
    37    25     6    1
    38    31    26   ar
    39    31    30   ar
    40    20    47    1
    41    60    30    1
    42     1    48    2
    43     1    43   am
    44    18    46    1
    45    18    45    1
    46    26    27   ar
    47    30    29   ar
    48     5    50    1
    49     5     6    1
    50     5    16    1
    51    50    68    1
    52     6    43    1
    53     6    17    1
    54    43     7    1
    55    27    57    1
    56    27    28   ar
    57    29    59    1
    58    29    28   ar
    59    28    58    1
    60     7    36    1
    61     7    37    1
    62     7    32    1
    63    63    32    1
    64    32    62    1
    65    32    33    1
    66    33    34    1
    67    64    34    1
    68    34    35    2
    69    35    65    1
    70    35    66    1
