@<TRIPOS>MOLECULE
Mol_106
 87 92 0 0 0
SMALL
GASTEIGER
Energy = 0

@<TRIPOS>ATOM
      1 C           2.7808   -5.0669   -0.1439 C.2     1  LIG11       0.3060
      2 C           3.3531   -5.1061   -2.4958 C.3     1  LIG11       0.0416
      3 C           3.2161   -2.8986   -1.2336 C.3     1  LIG11       0.0601
      4 C           2.0035   -2.0060   -0.8766 C.3     1  LIG11       0.1016
      5 C           1.5539   -2.1952    0.5933 C.3     1  LIG11       0.1016
      6 C           1.0652   -3.6343    0.8986 C.3     1  LIG11       0.0601
      7 C           2.2862   -5.4421    2.2112 C.3     1  LIG11       0.0416
      8 C           2.8032   -4.4819   -3.7915 C.ar    1  LIG11      -0.0293
      9 C           3.6719   -4.0028   -4.7776 C.ar    1  LIG11      -0.0449
     10 C           3.1746   -3.4943   -5.9848 C.ar    1  LIG11       0.0374
     11 C           1.7935   -3.3753   -6.1677 C.ar    1  LIG11      -0.0496
     12 C           0.9172   -3.8204   -5.1762 C.ar    1  LIG11      -0.0607
     13 C           1.4226   -4.3933   -4.0055 C.ar    1  LIG11      -0.0570
     14 C           4.1010   -3.0732   -7.1046 C.2     1  LIG11       0.2493
     15 N           0.8079   -3.4732    6.5294 N.pl3   1  LIG11       0.0564
     16 C           6.1519   -3.5391   -8.3953 C.ar    1  LIG11       0.1251
     17 N           7.3479   -4.1471   -8.2591 N.ar    1  LIG11      -0.2401
     18 C           4.4734   -2.5507   -0.3817 C.3     1  LIG11      -0.0064
     19 C           5.7751   -2.7889   -1.1642 C.ar    1  LIG11      -0.0455
     20 C           6.2125   -1.8369   -2.0937 C.ar    1  LIG11      -0.0585
     21 C           7.4044   -2.0279   -2.7988 C.ar    1  LIG11      -0.0615
     22 C           8.1691   -3.1761   -2.5772 C.ar    1  LIG11      -0.0617
     23 C           7.7358   -4.1316   -1.6537 C.ar    1  LIG11      -0.0615
     24 C           6.5397   -3.9418   -0.9547 C.ar    1  LIG11      -0.0585
     25 C          -0.1092   -4.1001   -0.0114 C.3     1  LIG11      -0.0064
     26 C          -0.7391   -5.4246    0.4416 C.ar    1  LIG11      -0.0455
     27 C          -0.2344   -6.6408   -0.0330 C.ar    1  LIG11      -0.0585
     28 C          -0.8196   -7.8495    0.3532 C.ar    1  LIG11      -0.0615
     29 C          -1.9168   -7.8499    1.2184 C.ar    1  LIG11      -0.0617
     30 C          -2.4263   -6.6392    1.6954 C.ar    1  LIG11      -0.0615
     31 C          -1.8361   -5.4312    1.3116 C.ar    1  LIG11      -0.0585
     32 C           2.5262   -4.5534    3.4460 C.ar    1  LIG11      -0.0279
     33 C           3.7543   -3.9028    3.6031 C.ar    1  LIG11      -0.0569
     34 C           3.9792   -3.0806    4.7096 C.ar    1  LIG11      -0.0593
     35 C           2.9870   -2.9250    5.6811 C.ar    1  LIG11      -0.0315
     36 C           1.7606   -3.5944    5.5642 C.ar    1  LIG11       0.1265
     37 C           1.5423   -4.3923    4.4302 C.ar    1  LIG11      -0.0268
     38 O          -0.2333   -4.0775    6.3888 O.2     1  LIG11      -0.1261
     39 O           1.0469   -2.7713    7.4887 O.2     1  LIG11      -0.1261
     40 H           2.9480   -6.1313   -2.4921 H       1  LIG11       0.0514
     41 H           4.4504   -5.1879   -2.5310 H       1  LIG11       0.0514
     42 N           2.9964   -4.3502   -1.2847 N.am    1  LIG11      -0.2752
     43 N           2.1235   -4.6505    0.9777 N.am    1  LIG11      -0.2752
     44 N           5.2197   -3.7930   -7.3532 N.am    1  LIG11      -0.2664
     45 C           8.3100   -4.0464   -9.1976 C.ar    1  LIG11       0.0297
     46 H           3.4703   -2.5618   -2.2514 H       1  LIG11       0.0531
     47 H           1.1687   -2.2348   -1.5585 H       1  LIG11       0.0638
     48 O           3.2244   -6.2035   -0.1354 O.2     1  LIG11      -0.2524
     49 O           2.3290   -0.6121   -1.0612 O.3     1  LIG11      -0.3873
     50 O           0.5558   -1.2101    0.9311 O.3     1  LIG11      -0.3873
     51 O           3.7663   -2.0851   -7.7353 O.2     1  LIG11      -0.2698
     52 H           2.3883   -1.9845    1.2804 H       1  LIG11       0.0638
     53 C           8.0971   -3.2689  -10.3383 C.ar    1  LIG11      -0.0435
     54 H           0.6054   -3.5444    1.8974 H       1  LIG11       0.0531
     55 C           6.8776   -2.6048  -10.4928 C.ar    1  LIG11      -0.0571
     56 C           5.8849   -2.7447   -9.5193 C.ar    1  LIG11      -0.0215
     57 H           3.1487   -6.1278    2.1905 H       1  LIG11       0.0514
     58 H           1.3894   -6.0661    2.3458 H       1  LIG11       0.0514
     59 H           4.7415   -4.0211   -4.6005 H       1  LIG11       0.0628
     60 H           1.4003   -2.9451   -7.0845 H       1  LIG11       0.0625
     61 H          -0.1552   -3.7253   -5.3208 H       1  LIG11       0.0618
     62 H           0.7323   -4.7757   -3.2652 H       1  LIG11       0.0621
     63 H           4.4780   -3.1345    0.5491 H       1  LIG11       0.0332
     64 H           4.4751   -1.4873   -0.0956 H       1  LIG11       0.0332
     65 H           5.6287   -0.9390   -2.2721 H       1  LIG11       0.0620
     66 H           7.7378   -1.2844   -3.5171 H       1  LIG11       0.0618
     67 H           9.0975   -3.3245   -3.1208 H       1  LIG11       0.0618
     68 H           8.3309   -5.0225   -1.4784 H       1  LIG11       0.0618
     69 H           6.2087   -4.6948   -0.2466 H       1  LIG11       0.0620
     70 H           0.2387   -4.2524   -1.0371 H       1  LIG11       0.0332
     71 H          -0.9063   -3.3425   -0.0420 H       1  LIG11       0.0332
     72 H           0.6129   -6.6563   -0.7102 H       1  LIG11       0.0620
     73 H          -0.4220   -8.7878   -0.0213 H       1  LIG11       0.0618
     74 H          -2.3721   -8.7888    1.5181 H       1  LIG11       0.0618
     75 H          -3.2826   -6.6381    2.3632 H       1  LIG11       0.0618
     76 H          -2.2410   -4.4979    1.6901 H       1  LIG11       0.0620
     77 H           4.5415   -4.0379    2.8692 H       1  LIG11       0.0621
     78 H           4.9279   -2.5624    4.8173 H       1  LIG11       0.0618
     79 H           3.1893   -2.2755    6.5274 H       1  LIG11       0.0640
     80 H           0.5943   -4.9032    4.3036 H       1  LIG11       0.0643
     81 H           5.4268   -4.5817   -6.7794 H       1  LIG11       0.1566
     82 H           9.2471   -4.5744   -9.0569 H       1  LIG11       0.0830
     83 H           2.5437   -0.3738   -1.9586 H       1  LIG11       0.2100
     84 H          -0.1490   -1.1353    0.2969 H       1  LIG11       0.2100
     85 H           8.8700   -3.1835  -11.0950 H       1  LIG11       0.0633
     86 H           6.7007   -1.9868  -11.3679 H       1  LIG11       0.0619
     87 H           4.9399   -2.2445   -9.6775 H       1  LIG11       0.0652
@<TRIPOS>BOND
     1    86    55    1
     2    85    53    1
     3    55    53   ar
     4    55    56   ar
     5    53    45   ar
     6    87    56    1
     7    56    16   ar
     8    45    82    1
     9    45    17   ar
    10    16    17   ar
    11    16    44    1
    12    51    14    2
    13    44    14   am
    14    44    81    1
    15    14    10    1
    16    60    11    1
    17    11    10   ar
    18    11    12   ar
    19    10     9   ar
    20    61    12    1
    21    12    13   ar
    22     9    59    1
    23     9     8   ar
    24    13     8   ar
    25    13    62    1
    26     8     2    1
    27    66    21    1
    28    67    22    1
    29    21    22   ar
    30    21    20   ar
    31    22    23   ar
    32    41     2    1
    33     2    40    1
    34     2    42    1
    35    65    20    1
    36    46     3    1
    37    20    19   ar
    38    83    49    1
    39    23    68    1
    40    23    24   ar
    41    47     4    1
    42    42     3    1
    43    42     1   am
    44     3     4    1
    45     3    18    1
    46    19    24   ar
    47    19    18    1
    48    49     4    1
    49    70    25    1
    50    24    69    1
    51     4     5    1
    52    72    27    1
    53    18    64    1
    54    18    63    1
    55     1    48    2
    56     1    43   am
    57    71    25    1
    58    27    28   ar
    59    27    26   ar
    60    73    28    1
    61    25    26    1
    62    25     6    1
    63    84    50    1
    64    28    29   ar
    65    26    31   ar
    66     5     6    1
    67     5    50    1
    68     5    52    1
    69     6    43    1
    70     6    54    1
    71    43     7    1
    72    29    74    1
    73    29    30   ar
    74    31    76    1
    75    31    30   ar
    76    30    75    1
    77    57     7    1
    78     7    58    1
    79     7    32    1
    80    77    33    1
    81    32    33   ar
    82    32    37   ar
    83    33    34   ar
    84    80    37    1
    85    37    36   ar
    86    34    78    1
    87    34    35   ar
    88    36    35   ar
    89    36    15    1
    90    35    79    1
    91    38    15    2
    92    15    39    2
