@<TRIPOS>MOLECULE
Mol_45
 66 68 0 0 0
SMALL
GASTEIGER
Energy = 0

@<TRIPOS>ATOM
      1 C           2.8105   -4.6413    0.0338 C.2     1  LIG11       0.3060
      2 C           2.3091   -5.1454    2.3541 C.3     1  LIG11       0.0371
      3 C           0.8188   -3.5826    1.0047 C.3     1  LIG11       0.0601
      4 C           1.0017   -2.0647    0.7625 C.3     1  LIG11       0.1016
      5 C           1.5238   -1.7640   -0.6643 C.3     1  LIG11       0.1016
      6 C           2.9228   -2.3804   -0.9258 C.3     1  LIG11       0.0601
      7 C           3.5058   -4.4544   -2.2861 C.3     1  LIG11       0.0371
      8 C           2.1270   -4.3292    3.6221 C.2     1  LIG11      -0.0625
      9 C           1.0657   -4.4992    4.4237 C.2     1  LIG11      -0.0982
     10 H           3.3340   -5.5477    2.3955 H       1  LIG11       0.0511
     11 H           1.6294   -6.0118    2.3448 H       1  LIG11       0.0511
     12 H           0.2819   -3.6163    1.9671 H       1  LIG11       0.0531
     13 H           1.7115   -1.6835    1.5116 H       1  LIG11       0.0638
     14 H           0.8267   -2.1806   -1.4040 H       1  LIG11       0.0638
     15 H           3.2194   -1.9361   -1.8919 H       1  LIG11       0.0531
     16 H           3.3709   -5.5474   -2.3171 H       1  LIG11       0.0511
     17 H           4.5900   -4.2689   -2.3150 H       1  LIG11       0.0511
     18 C          -0.1754   -4.2558    0.0125 C.3     1  LIG11      -0.0064
     19 C          -0.6935   -5.6087    0.5289 C.ar    1  LIG11      -0.0455
     20 C          -1.7879   -5.6546    1.4005 C.ar    1  LIG11      -0.0585
     21 C          -2.2912   -6.8812    1.8458 C.ar    1  LIG11      -0.0615
     22 C          -1.6959   -8.0739    1.4282 C.ar    1  LIG11      -0.0617
     23 C          -0.5954   -8.0353    0.5670 C.ar    1  LIG11      -0.0615
     24 C          -0.0928   -6.8078    0.1254 C.ar    1  LIG11      -0.0585
     25 C           4.0162   -1.8782    0.0650 C.3     1  LIG11      -0.0064
     26 C           5.4465   -2.1179   -0.4508 C.ar    1  LIG11      -0.0455
     27 C           6.0790   -3.3508   -0.2467 C.ar    1  LIG11      -0.0585
     28 C           7.3832   -3.5659   -0.7013 C.ar    1  LIG11      -0.0615
     29 C           8.0746   -2.5426   -1.3558 C.ar    1  LIG11      -0.0617
     30 C           7.4529   -1.3085   -1.5602 C.ar    1  LIG11      -0.0615
     31 C           6.1426   -1.1016   -1.1163 C.ar    1  LIG11      -0.0585
     32 C           2.8387   -3.9380   -3.5470 C.2     1  LIG11      -0.0625
     33 C           3.5143   -3.2551   -4.4815 C.2     1  LIG11      -0.0982
     34 C           3.2013   -3.3136    3.9521 C.3     1  LIG11      -0.0426
     35 H           0.9370   -3.9120    5.3326 H       1  LIG11       0.0535
     36 H           0.2890   -5.2285    4.1958 H       1  LIG11       0.0535
     37 H           0.3033   -4.4217   -0.9597 H       1  LIG11       0.0332
     38 H          -1.0469   -3.6033   -0.1566 H       1  LIG11       0.0332
     39 H          -2.2573   -4.7350    1.7352 H       1  LIG11       0.0620
     40 H          -3.1458   -6.9079    2.5154 H       1  LIG11       0.0618
     41 H          -2.0866   -9.0274    1.7713 H       1  LIG11       0.0618
     42 N           2.0525   -4.3663    1.1325 N.am    1  LIG11      -0.2756
     43 N           2.9678   -3.8420   -1.0599 N.am    1  LIG11      -0.2756
     44 H          -0.1320   -8.9615    0.2407 H       1  LIG11       0.0618
     45 H           0.7676   -6.7930   -0.5362 H       1  LIG11       0.0620
     46 H           3.9306   -2.3922    1.0305 H       1  LIG11       0.0332
     47 H           3.8862   -0.8000    0.2509 H       1  LIG11       0.0332
     48 O           3.4065   -5.7058    0.0315 O.2     1  LIG11      -0.2524
     49 O          -0.2725   -1.4326    1.0054 O.3     1  LIG11      -0.3873
     50 O           1.6018   -0.3445   -0.9084 O.3     1  LIG11      -0.3873
     51 H           5.5604   -4.1518    0.2689 H       1  LIG11       0.0620
     52 H           7.8616   -4.5283   -0.5456 H       1  LIG11       0.0618
     53 H           9.0905   -2.7062   -1.7033 H       1  LIG11       0.0618
     54 H           7.9894   -0.5096   -2.0636 H       1  LIG11       0.0618
     55 H           5.6717   -0.1395   -1.2908 H       1  LIG11       0.0620
     56 C           1.3665   -4.2356   -3.7267 C.3     1  LIG11      -0.0426
     57 H           4.5768   -3.0371   -4.3789 H       1  LIG11       0.0535
     58 H           3.0175   -2.8940   -5.3817 H       1  LIG11       0.0535
     59 H          -0.2234   -0.4849    1.0849 H       1  LIG11       0.2100
     60 H           0.7505    0.0807   -0.9587 H       1  LIG11       0.2100
     61 H           4.2035   -3.7474    3.8203 H       1  LIG11       0.0275
     62 H           3.1253   -2.9597    4.9916 H       1  LIG11       0.0275
     63 H           3.1086   -2.4387    3.2984 H       1  LIG11       0.0275
     64 H           1.1334   -4.4186   -4.7863 H       1  LIG11       0.0275
     65 H           0.7651   -3.3790   -3.3967 H       1  LIG11       0.0275
     66 H           1.0638   -5.1285   -3.1609 H       1  LIG11       0.0275
@<TRIPOS>BOND
     1    58    33    1
     2    64    56    1
     3    33    57    1
     4    33    32    2
     5    56    32    1
     6    56    65    1
     7    56    66    1
     8    32     7    1
     9    16     7    1
    10    17     7    1
    11     7    43    1
    12    54    30    1
    13    15     6    1
    14    53    29    1
    15    30    29   ar
    16    30    31   ar
    17    14     5    1
    18    29    28   ar
    19    55    31    1
    20    31    26   ar
    21    43     6    1
    22    43     1   am
    23    37    18    1
    24    60    50    1
    25     6     5    1
    26     6    25    1
    27    50     5    1
    28    28    52    1
    29    28    27   ar
    30     5     4    1
    31    45    24    1
    32    26    27   ar
    33    26    25    1
    34    27    51    1
    35    38    18    1
    36    18    19    1
    37    18     3    1
    38    48     1    2
    39     1    42   am
    40    25    47    1
    41    25    46    1
    42    24    19   ar
    43    24    23   ar
    44    44    23    1
    45    19    20   ar
    46    23    22   ar
    47     4     3    1
    48     4    49    1
    49     4    13    1
    50     3    42    1
    51     3    12    1
    52    49    59    1
    53    42     2    1
    54    20    39    1
    55    20    21   ar
    56    22    41    1
    57    22    21   ar
    58    21    40    1
    59    11     2    1
    60     2    10    1
    61     2     8    1
    62    63    34    1
    63     8    34    1
    64     8     9    2
    65    61    34    1
    66    34    62    1
    67    36     9    1
    68     9    35    1
