@<TRIPOS>MOLECULE
Mol_77
 98 104 0 0 0
SMALL
GASTEIGER
Energy = 0

@<TRIPOS>ATOM
      1 C           2.8674   -4.8540    0.1035 C.2     1  LIG11       0.3060
      2 C           2.2399   -5.5507    2.3539 C.3     1  LIG11       0.0416
      3 C           0.8589   -3.8167    1.1161 C.3     1  LIG11       0.0601
      4 C           1.0938   -2.2980    0.9331 C.3     1  LIG11       0.1016
      5 C           1.5870   -1.9591   -0.5005 C.3     1  LIG11       0.1016
      6 C           2.9863   -2.5532   -0.7908 C.3     1  LIG11       0.0601
      7 C           3.6580   -4.5667   -2.1851 C.3     1  LIG11       0.0416
      8 C           2.4012   -4.7735    3.6725 C.ar    1  LIG11      -0.0293
      9 C           1.4942   -4.9417    4.7240 C.ar    1  LIG11      -0.0449
     10 C           1.7074   -4.3183    5.9606 C.ar    1  LIG11       0.0373
     11 C           2.7292   -3.3715    6.0859 C.ar    1  LIG11      -0.0496
     12 C           3.6220   -3.1690    5.0311 C.ar    1  LIG11      -0.0607
     13 C           3.4813   -3.9013    3.8484 C.ar    1  LIG11      -0.0570
     14 C           0.8693   -4.6737    7.1699 C.2     1  LIG11       0.2483
     15 C           5.4322   -2.7619   -8.3393 C.ar    1  LIG11       0.0519
     16 C           6.3110   -1.6776   -8.2740 C.ar    1  LIG11       0.0487
     17 N           7.0759   -1.3552   -9.3382 N.ar    1  LIG11      -0.2614
     18 C          -0.1813   -4.3706    0.0988 C.3     1  LIG11      -0.0064
     19 C          -0.8443   -5.6835    0.5397 C.ar    1  LIG11      -0.0455
     20 C          -1.9058   -5.6524    1.4513 C.ar    1  LIG11      -0.0585
     21 C          -2.5246   -6.8377    1.8588 C.ar    1  LIG11      -0.0615
     22 C          -2.0891   -8.0640    1.3496 C.ar    1  LIG11      -0.0617
     23 C          -1.0402   -8.1002    0.4267 C.ar    1  LIG11      -0.0615
     24 C          -0.4174   -6.9143    0.0264 C.ar    1  LIG11      -0.0585
     25 C           4.0744   -2.0273    0.1918 C.3     1  LIG11      -0.0064
     26 C           5.5131   -2.2399   -0.3069 C.ar    1  LIG11      -0.0455
     27 C           6.1344   -1.2632   -1.0945 C.ar    1  LIG11      -0.0585
     28 C           7.4632   -1.4175   -1.5011 C.ar    1  LIG11      -0.0615
     29 C           8.1780   -2.5609   -1.1351 C.ar    1  LIG11      -0.0617
     30 C           7.5573   -3.5506   -0.3680 C.ar    1  LIG11      -0.0615
     31 C           6.2277   -3.3943    0.0364 C.ar    1  LIG11      -0.0585
     32 C           2.8543   -4.2522   -3.4621 C.ar    1  LIG11      -0.0293
     33 C           3.4303   -3.5460   -4.5239 C.ar    1  LIG11      -0.0449
     34 C           2.7364   -3.3615   -5.7278 C.ar    1  LIG11       0.0373
     35 C           1.3841   -3.7106   -5.8013 C.ar    1  LIG11      -0.0496
     36 C           0.7833   -4.3815   -4.7337 C.ar    1  LIG11      -0.0607
     37 C           1.5352   -4.6993   -3.5986 C.ar    1  LIG11      -0.0570
     38 C           3.4429   -2.8165   -6.9515 C.2     1  LIG11       0.2483
     39 C           7.0127   -2.0561  -10.4897 C.ar    1  LIG11       0.0277
     40 C           6.1099   -3.1152  -10.6245 C.ar    1  LIG11      -0.0418
     41 C           5.2948   -3.4584   -9.5424 C.ar    1  LIG11      -0.0376
     42 N           2.0582   -4.6638    1.1894 N.am    1  LIG11      -0.2752
     43 N           3.0629   -4.0106   -0.9544 N.am    1  LIG11      -0.2752
     44 N           0.4643   -5.9496    7.3518 N.am    1  LIG11      -0.2802
     45 C          -0.1969   -6.3653    8.5356 C.ar    1  LIG11       0.0519
     46 N           4.7222   -3.1793   -7.1863 N.am    1  LIG11      -0.2802
     47 C           0.3530   -6.0919    9.7922 C.ar    1  LIG11       0.0487
     48 O           3.4905   -5.9020    0.0720 O.2     1  LIG11      -0.2524
     49 O          -0.1518   -1.6292    1.2184 O.3     1  LIG11      -0.3873
     50 O           1.6642   -0.5330   -0.7063 O.3     1  LIG11      -0.3873
     51 O           0.5976   -3.7921    7.9691 O.2     1  LIG11      -0.2699
     52 O           2.8304   -2.0800   -7.7077 O.2     1  LIG11      -0.2699
     53 N          -0.2530   -6.5348   10.9138 N.ar    1  LIG11      -0.2614
     54 C          -1.4053   -7.2347   10.8638 C.ar    1  LIG11       0.0277
     55 C          -2.0046   -7.5234    9.6344 C.ar    1  LIG11      -0.0418
     56 C          -1.3928   -7.0830    8.4579 C.ar    1  LIG11      -0.0376
     57 H           3.1400   -6.1841    2.3177 H       1  LIG11       0.0514
     58 H           1.3779   -6.2345    2.3992 H       1  LIG11       0.0514
     59 H           0.3442   -3.8764    2.0913 H       1  LIG11       0.0531
     60 H           1.8175   -1.9805    1.7017 H       1  LIG11       0.0638
     61 H           0.9031   -2.3564   -1.2680 H       1  LIG11       0.0638
     62 H           3.2555   -2.0941   -1.7585 H       1  LIG11       0.0531
     63 H           3.7296   -5.6653   -2.1982 H       1  LIG11       0.0514
     64 H           4.6876   -4.1857   -2.2665 H       1  LIG11       0.0514
     65 H           0.6197   -5.5656    4.5800 H       1  LIG11       0.0628
     66 H           2.8399   -2.8054    7.0065 H       1  LIG11       0.0625
     67 H           4.4304   -2.4507    5.1353 H       1  LIG11       0.0618
     68 H           4.2248   -3.7977    3.0690 H       1  LIG11       0.0621
     69 H           6.3868   -1.0967   -7.3622 H       1  LIG11       0.0848
     70 H           7.6697   -1.7892  -11.3110 H       1  LIG11       0.0829
     71 H           0.3134   -4.5420   -0.8585 H       1  LIG11       0.0332
     72 H          -0.9890   -3.6419   -0.0750 H       1  LIG11       0.0332
     73 H          -2.2587   -4.7038    1.8439 H       1  LIG11       0.0620
     74 H          -3.3449   -6.8060    2.5696 H       1  LIG11       0.0618
     75 H          -2.5650   -8.9861    1.6695 H       1  LIG11       0.0618
     76 H          -0.7098   -9.0512    0.0197 H       1  LIG11       0.0618
     77 H           0.3973   -6.9583   -0.6896 H       1  LIG11       0.0620
     78 H           3.9844   -2.5322    1.1576 H       1  LIG11       0.0332
     79 H           3.9355   -0.9496    0.3740 H       1  LIG11       0.0332
     80 H           5.5883   -0.3733   -1.3907 H       1  LIG11       0.0620
     81 H           7.9418   -0.6480   -2.0996 H       1  LIG11       0.0618
     82 H           9.2121   -2.6794   -1.4457 H       1  LIG11       0.0618
     83 H           8.1109   -4.4409   -0.0848 H       1  LIG11       0.0618
     84 H           5.7555   -4.1758    0.6234 H       1  LIG11       0.0620
     85 H           4.4307   -3.1427   -4.4155 H       1  LIG11       0.0628
     86 H           0.8061   -3.4769   -6.6907 H       1  LIG11       0.0625
     87 H          -0.2636   -4.6665   -4.7915 H       1  LIG11       0.0618
     88 H           1.0903   -5.3124   -2.8279 H       1  LIG11       0.0621
     89 H           6.0468   -3.6664  -11.5577 H       1  LIG11       0.0633
     90 H           4.5721   -4.2631   -9.6276 H       1  LIG11       0.0637
     91 H           0.6783   -6.6479    6.6732 H       1  LIG11       0.1552
     92 H           5.1881   -3.8071   -6.5684 H       1  LIG11       0.1552
     93 H           1.2788   -5.5334    9.8716 H       1  LIG11       0.0848
     94 H          -0.0677   -0.6833    1.2900 H       1  LIG11       0.2100
     95 H           0.8143   -0.1079   -0.7766 H       1  LIG11       0.2100
     96 H          -1.8632   -7.5707   11.7881 H       1  LIG11       0.0829
     97 H          -2.9339   -8.0829    9.5948 H       1  LIG11       0.0633
     98 H          -1.8401   -7.2953    7.4924 H       1  LIG11       0.0637
@<TRIPOS>BOND
     1    89    40    1
     2    70    39    1
     3    40    39   ar
     4    40    41   ar
     5    39    17   ar
     6    90    41    1
     7    41    15   ar
     8    17    16   ar
     9    15    16   ar
    10    15    46    1
    11    16    69    1
    12    52    38    2
    13    46    38   am
    14    46    92    1
    15    38    34    1
    16    86    35    1
    17    35    34   ar
    18    35    36   ar
    19    34    33   ar
    20    87    36    1
    21    36    37   ar
    22    33    85    1
    23    33    32   ar
    24    37    32   ar
    25    37    88    1
    26    32     7    1
    27    64     7    1
    28    63     7    1
    29     7    43    1
    30    81    28    1
    31    62     6    1
    32    28    29   ar
    33    28    27   ar
    34    82    29    1
    35    80    27    1
    36    61     5    1
    37    29    30   ar
    38    27    26   ar
    39    43     6    1
    40    43     1   am
    41    71    18    1
    42     6     5    1
    43     6    25    1
    44    95    50    1
    45    50     5    1
    46    77    24    1
    47     5     4    1
    48    30    83    1
    49    30    31   ar
    50    26    31   ar
    51    26    25    1
    52    72    18    1
    53    76    23    1
    54    24    23   ar
    55    24    19   ar
    56    31    84    1
    57    48     1    2
    58    18    19    1
    59    18     3    1
    60     1    42   am
    61    25    79    1
    62    25    78    1
    63    23    22   ar
    64    19    20   ar
    65     4     3    1
    66     4    49    1
    67     4    60    1
    68     3    42    1
    69     3    59    1
    70    42     2    1
    71    49    94    1
    72    22    75    1
    73    22    21   ar
    74    20    73    1
    75    20    21   ar
    76    21    74    1
    77    57     2    1
    78     2    58    1
    79     2     8    1
    80    68    13    1
    81     8    13   ar
    82     8     9   ar
    83    13    12   ar
    84    65     9    1
    85     9    10   ar
    86    12    67    1
    87    12    11   ar
    88    10    11   ar
    89    10    14    1
    90    11    66    1
    91    91    44    1
    92    14    44   am
    93    14    51    2
    94    44    45    1
    95    98    56    1
    96    56    45   ar
    97    56    55   ar
    98    45    47   ar
    99    97    55    1
   100    55    54   ar
   101    47    93    1
   102    47    53   ar
   103    54    53   ar
   104    54    96    1
