@<TRIPOS>MOLECULE
Mol_86
 102 108 0 0 0
SMALL
GASTEIGER
Energy = 0

@<TRIPOS>ATOM
      1 C           2.9504   -4.7536   -0.1112 C.2     1  LIG11       0.3060
      2 C           3.7630   -4.4434   -2.3874 C.3     1  LIG11       0.0416
      3 C           3.0057   -2.4541   -1.0066 C.3     1  LIG11       0.0601
      4 C           1.5773   -1.9237   -0.7568 C.3     1  LIG11       0.1016
      5 C           1.0618   -2.2492    0.6682 C.3     1  LIG11       0.1016
      6 C           0.9204   -3.7736    0.9291 C.3     1  LIG11       0.0601
      7 C           2.4055   -5.4457    2.1507 C.3     1  LIG11       0.0416
      8 C           2.9902   -4.1316   -3.6836 C.ar    1  LIG11      -0.0293
      9 C           3.6328   -3.5193   -4.7629 C.ar    1  LIG11      -0.0449
     10 C           2.9805   -3.3596   -5.9931 C.ar    1  LIG11       0.0374
     11 C           1.6103   -3.6196   -6.0895 C.ar    1  LIG11      -0.0496
     12 C           0.9398   -4.1793   -5.0001 C.ar    1  LIG11      -0.0607
     13 C           1.6431   -4.4805   -3.8297 C.ar    1  LIG11      -0.0570
     14 C           3.7685   -2.9495   -7.2174 C.2     1  LIG11       0.2504
     15 C           0.2534   -6.4365    8.3993 C.ar    1  LIG11       0.2219
     16 N          -0.4709   -5.5899    9.1555 N.ar    1  LIG11      -0.2226
     17 C          -1.1444   -6.0439   10.2294 C.ar    1  LIG11       0.0329
     18 C           4.0383   -1.8773    0.0065 C.3     1  LIG11      -0.0064
     19 C           5.4924   -2.1096   -0.4288 C.ar    1  LIG11      -0.0455
     20 C           6.1542   -1.1636   -1.2207 C.ar    1  LIG11      -0.0585
     21 C           7.4825   -1.3682   -1.6062 C.ar    1  LIG11      -0.0615
     22 C           8.1582   -2.5227   -1.2020 C.ar    1  LIG11      -0.0617
     23 C           7.5049   -3.4673   -0.4059 C.ar    1  LIG11      -0.0615
     24 C           6.1760   -3.2622   -0.0242 C.ar    1  LIG11      -0.0585
     25 C          -0.0967   -4.4461   -0.0395 C.3     1  LIG11      -0.0064
     26 C          -0.6901   -5.7678    0.4635 C.ar    1  LIG11      -0.0455
     27 C          -1.7449   -5.7463    1.3833 C.ar    1  LIG11      -0.0585
     28 C          -2.3434   -6.9383    1.8003 C.ar    1  LIG11      -0.0615
     29 C          -1.8794   -8.1612    1.3084 C.ar    1  LIG11      -0.0617
     30 C          -0.8144   -8.1890    0.4037 C.ar    1  LIG11      -0.0615
     31 C          -0.2142   -6.9961   -0.0099 C.ar    1  LIG11      -0.0585
     32 C           2.5675   -4.6833    3.4752 C.ar    1  LIG11      -0.0293
     33 C           1.6686   -4.8918    4.5250 C.ar    1  LIG11      -0.0449
     34 C           1.8807   -4.2768    5.7625 C.ar    1  LIG11       0.0374
     35 C           2.8968   -3.3328    5.9230 C.ar    1  LIG11      -0.0496
     36 C           3.7856   -3.1020    4.8716 C.ar    1  LIG11      -0.0607
     37 C           3.6346   -3.7965    3.6665 C.ar    1  LIG11      -0.0570
     38 C           1.0306   -4.6630    6.9472 C.2     1  LIG11       0.2504
     39 C          -1.0814   -7.4000   10.5595 C.ar    1  LIG11      -0.0224
     40 C          -0.3110   -8.2512    9.7617 C.ar    1  LIG11       0.0433
     41 N           0.3377   -7.7482    8.6935 N.ar    1  LIG11      -0.2194
     42 N           3.1330   -3.9065   -1.1665 N.am    1  LIG11      -0.2752
     43 N           2.1616   -4.5681    0.9907 N.am    1  LIG11      -0.2752
     44 N           5.0134   -3.4503   -7.3472 N.am    1  LIG11      -0.2505
     45 C           5.8366   -3.2640   -8.4787 C.ar    1  LIG11       0.2219
     46 N           0.9573   -5.9701    7.2669 N.am    1  LIG11      -0.2505
     47 N           6.7673   -4.2167   -8.6738 N.ar    1  LIG11      -0.2226
     48 O           3.5688   -5.8040   -0.1589 O.2     1  LIG11      -0.2524
     49 O           1.5995   -0.4963   -0.9563 O.3     1  LIG11      -0.3873
     50 O          -0.1594   -1.5203    0.9151 O.3     1  LIG11      -0.3873
     51 O           3.2404   -2.2256   -8.0462 O.2     1  LIG11      -0.2698
     52 O           0.4750   -3.7709    7.5665 O.2     1  LIG11      -0.2698
     53 C           7.5793   -4.1774   -9.7441 C.ar    1  LIG11       0.0329
     54 C           7.4944   -3.0945  -10.6206 C.ar    1  LIG11      -0.0224
     55 C           6.5476   -2.0960  -10.3678 C.ar    1  LIG11       0.0433
     56 N           5.7155   -2.2098   -9.3102 N.ar    1  LIG11      -0.2194
     57 H           3.8573   -5.5401   -2.4126 H       1  LIG11       0.0514
     58 H           4.7870   -4.0411   -2.4342 H       1  LIG11       0.0514
     59 H           3.2828   -1.9883   -1.9690 H       1  LIG11       0.0531
     60 H           0.9168   -2.3633   -1.5225 H       1  LIG11       0.0638
     61 H           1.7360   -1.8414    1.4352 H       1  LIG11       0.0638
     62 H           0.4375   -3.8161    1.9206 H       1  LIG11       0.0531
     63 H           3.3360   -6.0334    2.0984 H       1  LIG11       0.0514
     64 H           1.5817   -6.1735    2.2079 H       1  LIG11       0.0514
     65 H           4.6543   -3.1751   -4.6466 H       1  LIG11       0.0628
     66 H           1.0752   -3.4067   -7.0103 H       1  LIG11       0.0625
     67 H          -0.1234   -4.3923   -5.0680 H       1  LIG11       0.0618
     68 H           1.1346   -5.0057   -3.0386 H       1  LIG11       0.0621
     69 H          -1.7286   -5.3513   10.8252 H       1  LIG11       0.0831
     70 H          -1.6208   -7.7834   11.4181 H       1  LIG11       0.0651
     71 H           3.9133   -2.3417    0.9898 H       1  LIG11       0.0332
     72 H           3.8837   -0.7936    0.1345 H       1  LIG11       0.0332
     73 H           5.6411   -0.2613   -1.5383 H       1  LIG11       0.0620
     74 H           7.9909   -0.6297   -2.2189 H       1  LIG11       0.0618
     75 H           9.1881   -2.6854   -1.5051 H       1  LIG11       0.0618
     76 H           8.0302   -4.3609   -0.0830 H       1  LIG11       0.0618
     77 H           5.6800   -4.0056    0.5914 H       1  LIG11       0.0620
     78 H           0.4008   -4.6273   -0.9905 H       1  LIG11       0.0332
     79 H          -0.9665   -3.8119   -0.2521 H       1  LIG11       0.0332
     80 H          -2.1110   -4.8009    1.7718 H       1  LIG11       0.0620
     81 H          -3.1703   -6.9140    2.5038 H       1  LIG11       0.0618
     82 H          -2.3461   -9.0878    1.6285 H       1  LIG11       0.0618
     83 H          -0.4545   -9.1387    0.0198 H       1  LIG11       0.0618
     84 H           0.6183   -7.0308   -0.7060 H       1  LIG11       0.0620
     85 H           0.8075   -5.5391    4.3929 H       1  LIG11       0.0628
     86 H           3.0010   -2.8001    6.8640 H       1  LIG11       0.0625
     87 H           4.5970   -2.3914    4.9988 H       1  LIG11       0.0618
     88 H           4.3644   -3.6511    2.8807 H       1  LIG11       0.0621
     89 C          -0.1945   -9.7408   10.0780 C.3     1  LIG11      -0.0222
     90 H           0.2621  -10.2702    9.2281 H       1  LIG11       0.0293
     91 H           5.3686   -4.0863   -6.6698 H       1  LIG11       0.1580
     92 H           1.4549   -6.6423    6.7235 H       1  LIG11       0.1580
     93 H           8.2846   -4.9844   -9.9079 H       1  LIG11       0.0831
     94 H           0.7426   -0.0918   -0.8575 H       1  LIG11       0.2100
     95 H          -0.8402   -1.6259    0.2599 H       1  LIG11       0.2100
     96 H           8.1536   -3.0354  -11.4793 H       1  LIG11       0.0651
     97 C           6.4543   -0.8794  -11.2867 C.3     1  LIG11      -0.0222
     98 H          -1.1931  -10.1610   10.2678 H       1  LIG11       0.0293
     99 H           0.4372   -9.8745   10.9684 H       1  LIG11       0.0293
    100 H           5.7041   -0.1738  -10.9010 H       1  LIG11       0.0293
    101 H           6.1592   -1.2086  -12.2940 H       1  LIG11       0.0293
    102 H           7.4314   -0.3754  -11.3384 H       1  LIG11       0.0293
@<TRIPOS>BOND
     1   101    97    1
     2    96    54    1
     3   102    97    1
     4    97   100    1
     5    97    55    1
     6    54    55   ar
     7    54    53   ar
     8    55    56   ar
     9    93    53    1
    10    53    47   ar
    11    56    45   ar
    12    47    45   ar
    13    45    44    1
    14    51    14    2
    15    44    14   am
    16    44    91    1
    17    14    10    1
    18    66    11    1
    19    11    10   ar
    20    11    12   ar
    21    10     9   ar
    22    67    12    1
    23    12    13   ar
    24     9    65    1
    25     9     8   ar
    26    13     8   ar
    27    13    68    1
    28     8     2    1
    29    58     2    1
    30    57     2    1
    31     2    42    1
    32    74    21    1
    33    59     3    1
    34    21    20   ar
    35    21    22   ar
    36    73    20    1
    37    60     4    1
    38    75    22    1
    39    20    19   ar
    40    22    23   ar
    41    42     3    1
    42    42     1   am
    43     3     4    1
    44     3    18    1
    45    78    25    1
    46    49    94    1
    47    49     4    1
    48     4     5    1
    49    84    31    1
    50    19    24   ar
    51    19    18    1
    52    23    76    1
    53    23    24   ar
    54    79    25    1
    55    48     1    2
    56     1    43   am
    57    25    26    1
    58    25     6    1
    59    24    77    1
    60    31    30   ar
    61    31    26   ar
    62    18    72    1
    63    18    71    1
    64    83    30    1
    65    95    50    1
    66    30    29   ar
    67    26    27   ar
    68     5    50    1
    69     5     6    1
    70     5    61    1
    71     6    43    1
    72     6    62    1
    73    43     7    1
    74    29    82    1
    75    29    28   ar
    76    27    80    1
    77    27    28   ar
    78    28    81    1
    79    63     7    1
    80     7    64    1
    81     7    32    1
    82    88    37    1
    83    32    37   ar
    84    32    33   ar
    85    37    36   ar
    86    85    33    1
    87    33    34   ar
    88    36    87    1
    89    36    35   ar
    90    34    35   ar
    91    34    38    1
    92    35    86    1
    93    92    46    1
    94    38    46   am
    95    38    52    2
    96    46    15    1
    97    15    41   ar
    98    15    16   ar
    99    41    40   ar
   100    16    17   ar
   101    90    89    1
   102    40    89    1
   103    40    39   ar
   104    89    98    1
   105    89    99    1
   106    17    39   ar
   107    17    69    1
   108    39    70    1
