@<TRIPOS>MOLECULE
Mol_02
 58 60 0 0 0
SMALL
GASTEIGER
Energy = 0

@<TRIPOS>ATOM
      1 C           2.7010   -4.6321    0.1338 C.2     1  LIG11       0.3054
      2 C           3.4053   -4.5059   -2.2011 C.3     1  LIG11       0.0137
      3 C           2.8658   -2.3958   -0.8789 C.3     1  LIG11       0.0598
      4 C           1.4634   -1.7599   -0.7092 C.3     1  LIG11       0.1016
      5 C           0.8845   -2.0240    0.7042 C.3     1  LIG11       0.1016
      6 C           0.6671   -3.5333    0.9618 C.3     1  LIG11       0.0598
      7 C           2.1149   -4.9663    2.4832 C.3     1  LIG11       0.0137
      8 C           2.4325   -4.2759   -3.3891 C.3     1  LIG11      -0.0492
      9 H           3.5212   -5.5988   -2.1087 H       1  LIG11       0.0462
     10 H           4.3984   -4.0974   -2.4501 H       1  LIG11       0.0462
     11 H           3.2163   -1.9755   -1.8369 H       1  LIG11       0.0530
     12 H           0.8082   -2.1814   -1.4894 H       1  LIG11       0.0638
     13 H           1.5784   -1.6595    1.4796 H       1  LIG11       0.0638
     14 H           0.0787   -3.5441    1.8946 H       1  LIG11       0.0530
     15 H           2.9800   -5.6498    2.4919 H       1  LIG11       0.0462
     16 H           1.2285   -5.5660    2.7479 H       1  LIG11       0.0462
     17 H           2.3657   -3.2132   -3.6638 H       1  LIG11       0.0245
     18 C           3.9166   -1.8635    0.1399 C.3     1  LIG11      -0.0064
     19 C           5.3580   -2.1137   -0.3348 C.ar    1  LIG11      -0.0455
     20 C           6.0091   -3.3134   -0.0262 C.ar    1  LIG11      -0.0585
     21 C           7.3288   -3.5293   -0.4356 C.ar    1  LIG11      -0.0615
     22 C           8.0052   -2.5493   -1.1665 C.ar    1  LIG11      -0.0617
     23 C           7.3587   -1.3516   -1.4845 C.ar    1  LIG11      -0.0615
     24 C           6.0406   -1.1373   -1.0715 C.ar    1  LIG11      -0.0585
     25 C          -0.2832   -4.2286   -0.0560 C.3     1  LIG11      -0.0064
     26 C          -0.7412   -5.6078    0.4473 C.ar    1  LIG11      -0.0455
     27 C          -1.7933   -5.7074    1.3663 C.ar    1  LIG11      -0.0585
     28 C          -2.2309   -6.9580    1.8119 C.ar    1  LIG11      -0.0615
     29 C          -1.6191   -8.1225    1.3391 C.ar    1  LIG11      -0.0617
     30 C          -0.5670   -8.0304    0.4245 C.ar    1  LIG11      -0.0615
     31 C          -0.1244   -6.7776   -0.0118 C.ar    1  LIG11      -0.0585
     32 C           2.3834   -3.9113    3.5908 C.3     1  LIG11      -0.0492
     33 H           1.4255   -4.6308   -3.1256 H       1  LIG11       0.0245
     34 H           2.7734   -4.8344   -4.2753 H       1  LIG11       0.0245
     35 H           3.7964   -2.3435    1.1196 H       1  LIG11       0.0332
     36 H           3.7835   -0.7794    0.2847 H       1  LIG11       0.0332
     37 H           5.4938   -4.0852    0.5364 H       1  LIG11       0.0620
     38 H           7.8296   -4.4594   -0.1847 H       1  LIG11       0.0618
     39 H           9.0294   -2.7169   -1.4864 H       1  LIG11       0.0618
     40 H           7.8823   -0.5878   -2.0520 H       1  LIG11       0.0618
     41 H           5.5509   -0.2027   -1.3261 H       1  LIG11       0.0620
     42 N           2.9018   -3.8619   -0.9751 N.am    1  LIG11      -0.2798
     43 N           1.8897   -4.3129    1.1825 N.am    1  LIG11      -0.2798
     44 H           0.2105   -4.3667   -1.0253 H       1  LIG11       0.0332
     45 H          -1.1777   -3.6073   -0.2238 H       1  LIG11       0.0332
     46 H          -2.2789   -4.8105    1.7377 H       1  LIG11       0.0620
     47 H          -3.0471   -7.0271    2.5248 H       1  LIG11       0.0618
     48 O           3.2972   -5.6947    0.1936 O.2     1  LIG11      -0.2524
     49 O           1.5785   -0.3451   -0.9638 O.3     1  LIG11      -0.3873
     50 O          -0.3787   -1.3546    0.9001 O.3     1  LIG11      -0.3873
     51 H          -1.9604   -9.0950    1.6813 H       1  LIG11       0.0618
     52 H          -0.0929   -8.9335    0.0519 H       1  LIG11       0.0618
     53 H           0.7025   -6.7225   -0.7129 H       1  LIG11       0.0620
     54 H           1.5299   -3.2321    3.7298 H       1  LIG11       0.0245
     55 H           3.2664   -3.3091    3.3303 H       1  LIG11       0.0245
     56 H           2.5779   -4.4115    4.5528 H       1  LIG11       0.0245
     57 H           0.7374    0.0963   -1.0330 H       1  LIG11       0.2100
     58 H          -0.3013   -0.4093    0.9893 H       1  LIG11       0.2100
@<TRIPOS>BOND
     1    34     8    1
     2    17     8    1
     3     8    33    1
     4     8     2    1
     5    10     2    1
     6     2     9    1
     7     2    42    1
     8    40    23    1
     9    11     3    1
    10    12     4    1
    11    39    22    1
    12    23    22   ar
    13    23    24   ar
    14    41    24    1
    15    22    21   ar
    16    24    19   ar
    17    57    49    1
    18    44    25    1
    19    42     3    1
    20    42     1   am
    21    49     4    1
    22     3     4    1
    23     3    18    1
    24    53    31    1
    25     4     5    1
    26    21    38    1
    27    21    20   ar
    28    19    20   ar
    29    19    18    1
    30    45    25    1
    31    25    26    1
    32    25     6    1
    33    20    37    1
    34    31    30   ar
    35    31    26   ar
    36    52    30    1
    37     1    48    2
    38     1    43   am
    39    18    36    1
    40    18    35    1
    41    30    29   ar
    42    26    27   ar
    43     5    50    1
    44     5     6    1
    45     5    13    1
    46    50    58    1
    47     6    43    1
    48     6    14    1
    49    43     7    1
    50    29    51    1
    51    29    28   ar
    52    27    46    1
    53    27    28   ar
    54    28    47    1
    55     7    15    1
    56     7    16    1
    57     7    32    1
    58    55    32    1
    59    32    54    1
    60    32    56    1
