@<TRIPOS>MOLECULE
Mol_04
 70 72 0 0 0
SMALL
GASTEIGER
Energy = 0

@<TRIPOS>ATOM
      1 C           2.7728   -4.5401    0.0838 C.2     1  LIG11       0.3054
      2 C           2.2235   -4.9726    2.4235 C.3     1  LIG11       0.0165
      3 C           0.7630   -3.4553    0.9988 C.3     1  LIG11       0.0598
      4 C           0.9713   -1.9380    0.7714 C.3     1  LIG11       0.1016
      5 C           1.5305   -1.6406   -0.6424 C.3     1  LIG11       0.1016
      6 C           2.9316   -2.2686   -0.8434 C.3     1  LIG11       0.0598
      7 C           3.4283   -4.3240   -2.2559 C.3     1  LIG11       0.0165
      8 C           2.6808   -3.9740    3.5225 C.3     1  LIG11      -0.0373
      9 C           2.0286   -4.1036   -5.9310 C.3     1  LIG11      -0.0652
     10 C           2.7798   -4.6748    4.9044 C.3     1  LIG11      -0.0545
     11 C           3.2450   -3.6932    6.0107 C.3     1  LIG11      -0.0652
     12 H           2.9954   -5.7564    2.3607 H       1  LIG11       0.0465
     13 H           1.2938   -5.4746    2.7358 H       1  LIG11       0.0465
     14 H           0.2056   -3.4837    1.9516 H       1  LIG11       0.0530
     15 H           1.6693   -1.5750    1.5436 H       1  LIG11       0.0638
     16 H           0.8660   -2.0532   -1.4191 H       1  LIG11       0.0638
     17 H           3.2779   -1.8110   -1.7856 H       1  LIG11       0.0530
     18 C          -0.2237   -4.1113   -0.0119 C.3     1  LIG11      -0.0064
     19 C          -0.6839   -5.5040    0.4502 C.ar    1  LIG11      -0.0455
     20 C           0.0249   -6.6478    0.0651 C.ar    1  LIG11      -0.0585
     21 C          -0.4053   -7.9174    0.4631 C.ar    1  LIG11      -0.0615
     22 C          -1.5449   -8.0527    1.2593 C.ar    1  LIG11      -0.0617
     23 C          -2.2557   -6.9147    1.6517 C.ar    1  LIG11      -0.0615
     24 C          -1.8259   -5.6470    1.2486 C.ar    1  LIG11      -0.0585
     25 C           4.0045   -1.7825    0.1742 C.3     1  LIG11      -0.0064
     26 C           5.4336   -2.0762   -0.3166 C.ar    1  LIG11      -0.0455
     27 C           6.1107   -1.1498   -1.1202 C.ar    1  LIG11      -0.0585
     28 C           7.4167   -1.4018   -1.5509 C.ar    1  LIG11      -0.0615
     29 C           8.0589   -2.5867   -1.1810 C.ar    1  LIG11      -0.0617
     30 C           7.3894   -3.5164   -0.3813 C.ar    1  LIG11      -0.0615
     31 C           6.0801   -3.2649    0.0417 C.ar    1  LIG11      -0.0585
     32 C           2.4191   -4.0377   -3.4028 C.3     1  LIG11      -0.0373
     33 C           2.9707   -4.5187   -4.7714 C.3     1  LIG11      -0.0545
     34 H           3.5553   -5.4185   -2.2171 H       1  LIG11       0.0465
     35 H           4.4138   -3.8945   -2.4974 H       1  LIG11       0.0465
     36 H           1.9704   -3.1364    3.6013 H       1  LIG11       0.0280
     37 H           3.6654   -3.5609    3.2499 H       1  LIG11       0.0280
     38 H           2.3949   -4.5195   -6.8827 H       1  LIG11       0.0230
     39 H           1.9922   -3.0062   -6.0209 H       1  LIG11       0.0230
     40 H           1.0088   -4.4775   -5.7517 H       1  LIG11       0.0230
     41 H           3.4934   -5.5133    4.8432 H       1  LIG11       0.0263
     42 N           1.9813   -4.2601    1.1580 N.am    1  LIG11      -0.2796
     43 N           2.9540   -3.7291   -0.9965 N.am    1  LIG11      -0.2796
     44 H           1.7918   -5.0806    5.1793 H       1  LIG11       0.0263
     45 H           2.5445   -2.8478    6.0963 H       1  LIG11       0.0230
     46 H           4.2476   -3.3011    5.7795 H       1  LIG11       0.0230
     47 H           3.2864   -4.2132    6.9809 H       1  LIG11       0.0230
     48 O           3.3686   -5.6044    0.0872 O.2     1  LIG11      -0.2524
     49 O          -0.2959   -1.2825    0.9868 O.3     1  LIG11      -0.3873
     50 O           1.6321   -0.2215   -0.8786 O.3     1  LIG11      -0.3873
     51 H           0.2399   -4.2304   -0.9997 H       1  LIG11       0.0332
     52 H          -1.1124   -3.4720   -0.1372 H       1  LIG11       0.0332
     53 H           0.9141   -6.5592   -0.5503 H       1  LIG11       0.0620
     54 H           0.1465   -8.7993    0.1517 H       1  LIG11       0.0618
     55 H          -1.8775   -9.0381    1.5720 H       1  LIG11       0.0618
     56 H          -3.1431   -7.0181    2.2691 H       1  LIG11       0.0618
     57 H          -2.3887   -4.7721    1.5581 H       1  LIG11       0.0620
     58 H           3.8709   -2.2681    1.1491 H       1  LIG11       0.0332
     59 H           3.9072   -0.6959    0.3284 H       1  LIG11       0.0332
     60 H           5.6253   -0.2245   -1.4136 H       1  LIG11       0.0620
     61 H           7.9349   -0.6774   -2.1724 H       1  LIG11       0.0618
     62 H           9.0740   -2.7835   -1.5137 H       1  LIG11       0.0618
     63 H           7.8879   -4.4353   -0.0876 H       1  LIG11       0.0618
     64 H           5.5697   -4.0010    0.6542 H       1  LIG11       0.0620
     65 H           2.2057   -2.9619   -3.4818 H       1  LIG11       0.0280
     66 H           1.4690   -4.5527   -3.1854 H       1  LIG11       0.0280
     67 H           3.0802   -5.6158   -4.7564 H       1  LIG11       0.0263
     68 H           3.9643   -4.0742   -4.9496 H       1  LIG11       0.0263
     69 H          -0.2299   -0.3352    1.0594 H       1  LIG11       0.2100
     70 H           0.7870    0.2116   -0.9558 H       1  LIG11       0.2100
@<TRIPOS>BOND
     1    38     9    1
     2    39     9    1
     3     9    40    1
     4     9    33    1
     5    68    33    1
     6    33    67    1
     7    33    32    1
     8    65    32    1
     9    32    66    1
    10    32     7    1
    11    35     7    1
    12     7    34    1
    13     7    43    1
    14    61    28    1
    15    17     6    1
    16    28    29   ar
    17    28    27   ar
    18    62    29    1
    19    16     5    1
    20    60    27    1
    21    29    30   ar
    22    27    26   ar
    23    51    18    1
    24    43     6    1
    25    43     1   am
    26    70    50    1
    27    50     5    1
    28     6     5    1
    29     6    25    1
    30     5     4    1
    31    53    20    1
    32    30    63    1
    33    30    31   ar
    34    26    31   ar
    35    26    25    1
    36    52    18    1
    37    18    19    1
    38    18     3    1
    39    31    64    1
    40    20    19   ar
    41    20    21   ar
    42     1    48    2
    43     1    42   am
    44    54    21    1
    45    25    59    1
    46    25    58    1
    47    19    24   ar
    48    21    22   ar
    49     4    49    1
    50     4     3    1
    51     4    15    1
    52    49    69    1
    53     3    42    1
    54     3    14    1
    55    42     2    1
    56    24    57    1
    57    24    23   ar
    58    22    55    1
    59    22    23   ar
    60    23    56    1
    61    12     2    1
    62     2    13    1
    63     2     8    1
    64    37     8    1
    65     8    36    1
    66     8    10    1
    67    41    10    1
    68    10    44    1
    69    10    11    1
    70    46    11    1
    71    11    45    1
    72    11    47    1
