@<TRIPOS>MOLECULE
Mol_80
 104 110 0 0 0
SMALL
GASTEIGER
Energy = 0

@<TRIPOS>ATOM
      1 C           2.9120   -4.9041   -0.1930 C.2     1  LIG11       0.3060
      2 C           3.6591   -4.6914   -2.4929 C.3     1  LIG11       0.0416
      3 C           3.0645   -2.6233   -1.1304 C.3     1  LIG11       0.0601
      4 C           1.6840   -1.9965   -0.8081 C.3     1  LIG11       0.1016
      5 C           1.2442   -2.2846    0.6538 C.3     1  LIG11       0.1016
      6 C           0.9956   -3.7918    0.8986 C.3     1  LIG11       0.0601
      7 C           2.4375   -5.5084    2.1013 C.3     1  LIG11       0.0416
      8 C           2.9686   -4.2423   -3.7890 C.ar    1  LIG11      -0.0293
      9 C           3.7175   -3.6947   -4.8340 C.ar    1  LIG11      -0.0449
     10 C           3.1229   -3.4402   -6.0754 C.ar    1  LIG11       0.0374
     11 C           1.7350   -3.5321   -6.2119 C.ar    1  LIG11      -0.0496
     12 C           0.9672   -4.0153   -5.1504 C.ar    1  LIG11      -0.0607
     13 C           1.5895   -4.3998   -3.9593 C.ar    1  LIG11      -0.0570
     14 C           3.9745   -3.1013   -7.2781 C.2     1  LIG11       0.2493
     15 C           0.2875   -7.1098    8.2510 C.ar    1  LIG11       0.1253
     16 N           0.4737   -8.4434    8.2176 N.ar    1  LIG11      -0.2401
     17 C           0.0606   -9.2400    9.2207 C.ar    1  LIG11       0.0299
     18 C           4.1800   -2.1058   -0.1726 C.3     1  LIG11      -0.0064
     19 C           5.6048   -2.2929   -0.7149 C.ar    1  LIG11      -0.0455
     20 C           6.3075   -1.2121   -1.2622 C.ar    1  LIG11      -0.0585
     21 C           7.6052   -1.3860   -1.7518 C.ar    1  LIG11      -0.0615
     22 C           8.2053   -2.6472   -1.7104 C.ar    1  LIG11      -0.0617
     23 C           7.5118   -3.7285   -1.1607 C.ar    1  LIG11      -0.0615
     24 C           6.2248   -3.5458   -0.6472 C.ar    1  LIG11      -0.0585
     25 C          -0.1071   -4.3829   -0.0261 C.3     1  LIG11      -0.0064
     26 C          -0.6269   -5.7470    0.4513 C.ar    1  LIG11      -0.0455
     27 C          -0.0627   -6.9348   -0.0302 C.ar    1  LIG11      -0.0585
     28 C          -0.5571   -8.1733    0.3897 C.ar    1  LIG11      -0.0615
     29 C          -1.6165   -8.2325    1.2992 C.ar    1  LIG11      -0.0617
     30 C          -2.1835   -7.0505    1.7830 C.ar    1  LIG11      -0.0615
     31 C          -1.6875   -5.8131    1.3620 C.ar    1  LIG11      -0.0585
     32 C           2.3464   -4.7683    3.4465 C.ar    1  LIG11      -0.0293
     33 C           1.4405   -5.1834    4.4275 C.ar    1  LIG11      -0.0449
     34 C           1.4255   -4.5614    5.6803 C.ar    1  LIG11       0.0374
     35 C           2.2167   -3.4368    5.9228 C.ar    1  LIG11      -0.0496
     36 C           3.1090   -3.0032    4.9407 C.ar    1  LIG11      -0.0607
     37 C           3.1840   -3.6799    3.7191 C.ar    1  LIG11      -0.0570
     38 C           0.5870   -5.1385    6.7950 C.2     1  LIG11       0.2493
     39 C          -0.6292   -8.6942   10.3052 C.ar    1  LIG11      -0.0405
     40 C          -0.8753   -7.3174   10.3490 C.ar    1  LIG11      -0.0458
     41 C          -0.4100   -6.5076    9.3064 C.ar    1  LIG11      -0.0186
     42 N           3.1018   -4.0862   -1.2697 N.am    1  LIG11      -0.2752
     43 N           2.1873   -4.6481    0.9340 N.am    1  LIG11      -0.2752
     44 N           5.1633   -3.7343   -7.4076 N.am    1  LIG11      -0.2664
     45 C           6.0534   -3.6579   -8.5103 C.ar    1  LIG11       0.1253
     46 N           0.8773   -6.4008    7.1737 N.am    1  LIG11      -0.2664
     47 N           7.1210   -4.4751   -8.4188 N.ar    1  LIG11      -0.2401
     48 O           3.4585   -5.9942   -0.2353 O.2     1  LIG11      -0.2524
     49 O           1.7770   -0.5763   -1.0423 O.3     1  LIG11      -0.3873
     50 O           0.0321   -1.5784    0.9916 O.3     1  LIG11      -0.3873
     51 O           3.5137   -2.2968   -8.0695 O.2     1  LIG11      -0.2698
     52 O          -0.2798   -4.4334    7.2833 O.2     1  LIG11      -0.2698
     53 C           7.9868   -4.6293   -9.4371 C.ar    1  LIG11       0.0299
     54 C           7.8378   -3.8657  -10.5965 C.ar    1  LIG11      -0.0405
     55 C           6.7828   -2.9514  -10.6916 C.ar    1  LIG11      -0.0458
     56 C           5.8776   -2.8361   -9.6311 C.ar    1  LIG11      -0.0186
     57 H           3.5761   -5.7891   -2.5302 H       1  LIG11       0.0514
     58 H           4.7307   -4.4558   -2.5417 H       1  LIG11       0.0514
     59 H           3.3237   -2.1833   -2.1095 H       1  LIG11       0.0531
     60 H           0.9594   -2.3942   -1.5372 H       1  LIG11       0.0638
     61 H           2.0135   -1.9641    1.3750 H       1  LIG11       0.0638
     62 H           0.5287   -3.8113    1.8983 H       1  LIG11       0.0531
     63 H           3.4534   -5.9357    2.1098 H       1  LIG11       0.0514
     64 H           1.7286   -6.3495    2.0626 H       1  LIG11       0.0514
     65 H           4.7687   -3.4736   -4.6830 H       1  LIG11       0.0628
     66 H           1.2577   -3.2450   -7.1440 H       1  LIG11       0.0625
     67 H          -0.1100   -4.1019   -5.2564 H       1  LIG11       0.0618
     68 H           0.9947   -4.8339   -3.1700 H       1  LIG11       0.0621
     69 H           0.2707  -10.3030    9.1737 H       1  LIG11       0.0830
     70 H          -0.9689   -9.3420   11.1060 H       1  LIG11       0.0635
     71 H           4.1440   -2.6449    0.7795 H       1  LIG11       0.0332
     72 H           4.0246   -1.0366    0.0430 H       1  LIG11       0.0332
     73 H           5.8536   -0.2270   -1.3065 H       1  LIG11       0.0620
     74 H           8.1481   -0.5405   -2.1636 H       1  LIG11       0.0618
     75 H           9.2080   -2.7859   -2.1031 H       1  LIG11       0.0618
     76 H           7.9732   -4.7109   -1.1313 H       1  LIG11       0.0618
     77 H           5.7084   -4.3867   -0.1952 H       1  LIG11       0.0620
     78 H           0.2848   -4.5259   -1.0350 H       1  LIG11       0.0332
     79 H          -0.9605   -3.6896   -0.0979 H       1  LIG11       0.0332
     80 H           0.7619   -6.9040   -0.7357 H       1  LIG11       0.0620
     81 H          -0.1187   -9.0908    0.0084 H       1  LIG11       0.0618
     82 H          -1.9985   -9.1942    1.6286 H       1  LIG11       0.0618
     83 H          -3.0108   -7.0939    2.4849 H       1  LIG11       0.0618
     84 H          -2.1357   -4.9014    1.7442 H       1  LIG11       0.0620
     85 H           0.7501   -5.9973    4.2300 H       1  LIG11       0.0628
     86 H           2.1488   -2.9199    6.8754 H       1  LIG11       0.0625
     87 H           3.7488   -2.1470    5.1330 H       1  LIG11       0.0618
     88 H           3.9083   -3.3573    2.9839 H       1  LIG11       0.0621
     89 C          -1.6404   -6.7191   11.5353 C.3     1  LIG11      -0.0396
     90 H          -0.5862   -5.4414    9.3464 H       1  LIG11       0.0655
     91 H           5.4348   -4.3918   -6.7093 H       1  LIG11       0.1566
     92 H           1.5847   -6.8908    6.6667 H       1  LIG11       0.1566
     93 H           8.7923   -5.3496   -9.3425 H       1  LIG11       0.0830
     94 H           0.9343   -0.1323   -1.0270 H       1  LIG11       0.2100
     95 H           0.1511   -0.6388    1.0963 H       1  LIG11       0.2100
     96 H           8.5403   -3.9881  -11.4135 H       1  LIG11       0.0635
     97 C           6.6223   -2.0894  -11.9484 C.3     1  LIG11      -0.0396
     98 H           5.0732   -2.1204   -9.7115 H       1  LIG11       0.0655
     99 H          -2.7190   -6.8486   11.3628 H       1  LIG11       0.0278
    100 H          -1.4216   -5.6474   11.6552 H       1  LIG11       0.0278
    101 H          -1.3605   -7.2344   12.4666 H       1  LIG11       0.0278
    102 H           6.0682   -1.1642  -11.7289 H       1  LIG11       0.0278
    103 H           6.0693   -2.6681  -12.7029 H       1  LIG11       0.0278
    104 H           7.6078   -1.8148  -12.3530 H       1  LIG11       0.0278
@<TRIPOS>BOND
     1   103    97    1
     2   104    97    1
     3    97   102    1
     4    97    55    1
     5    96    54    1
     6    55    54   ar
     7    55    56   ar
     8    54    53   ar
     9    98    56    1
    10    56    45   ar
    11    53    93    1
    12    53    47   ar
    13    45    47   ar
    14    45    44    1
    15    51    14    2
    16    44    14   am
    17    44    91    1
    18    14    10    1
    19    66    11    1
    20    11    10   ar
    21    11    12   ar
    22    10     9   ar
    23    67    12    1
    24    12    13   ar
    25     9    65    1
    26     9     8   ar
    27    13     8   ar
    28    13    68    1
    29     8     2    1
    30    58     2    1
    31    57     2    1
    32     2    42    1
    33    74    21    1
    34    59     3    1
    35    75    22    1
    36    21    22   ar
    37    21    20   ar
    38    22    23   ar
    39    60     4    1
    40    73    20    1
    41    42     3    1
    42    42     1   am
    43    20    19   ar
    44    23    76    1
    45    23    24   ar
    46     3     4    1
    47     3    18    1
    48    49    94    1
    49    49     4    1
    50    78    25    1
    51     4     5    1
    52    80    27    1
    53    19    24   ar
    54    19    18    1
    55    24    77    1
    56    48     1    2
    57     1    43   am
    58    18    72    1
    59    18    71    1
    60    79    25    1
    61    27    28   ar
    62    27    26   ar
    63    25    26    1
    64    25     6    1
    65    81    28    1
    66    28    29   ar
    67    26    31   ar
    68     5     6    1
    69     5    50    1
    70     5    61    1
    71     6    43    1
    72     6    62    1
    73    43     7    1
    74    50    95    1
    75    29    82    1
    76    29    30   ar
    77    31    84    1
    78    31    30   ar
    79    30    83    1
    80    64     7    1
    81     7    63    1
    82     7    32    1
    83    88    37    1
    84    32    37   ar
    85    32    33   ar
    86    37    36   ar
    87    85    33    1
    88    33    34   ar
    89    36    87    1
    90    36    35   ar
    91    34    35   ar
    92    34    38    1
    93    35    86    1
    94    92    46    1
    95    38    46   am
    96    38    52    2
    97    46    15    1
    98    16    15   ar
    99    16    17   ar
   100    15    41   ar
   101    69    17    1
   102    17    39   ar
   103    41    90    1
   104    41    40   ar
   105    39    40   ar
   106    39    70    1
   107    40    89    1
   108    99    89    1
   109    89   100    1
   110    89   101    1
