@<TRIPOS>MOLECULE
Mol_37
 76 80 0 0 0
SMALL
GASTEIGER
Energy = 0

@<TRIPOS>ATOM
      1 C           2.8562   -4.8889    0.0502 C.2     1  LIG11       0.3060
      2 C           3.5851   -4.6603   -2.2686 C.3     1  LIG11       0.0416
      3 C           2.9523   -2.6170   -0.8930 C.3     1  LIG11       0.0601
      4 C           1.5394   -2.0323   -0.6486 C.3     1  LIG11       0.1016
      5 C           1.0178   -2.3388    0.7812 C.3     1  LIG11       0.1016
      6 C           0.8483   -3.8572    1.0345 C.3     1  LIG11       0.0601
      7 C           2.3331   -5.4235    2.3787 C.3     1  LIG11       0.0416
      8 C           2.8596   -4.2336   -3.5617 C.ar    1  LIG11      -0.0279
      9 C           1.5416   -4.6420   -3.7894 C.ar    1  LIG11      -0.0569
     10 C           0.8688   -4.2610   -4.9529 C.ar    1  LIG11      -0.0593
     11 C           1.5269   -3.5043   -5.9254 C.ar    1  LIG11      -0.0315
     12 C           2.8617   -3.1188   -5.7419 C.ar    1  LIG11       0.1265
     13 C           3.5018   -3.4632   -4.5417 C.ar    1  LIG11      -0.0268
     14 N           0.9431   -3.7569    6.8567 N.pl3   1  LIG11       0.0564
     15 H           3.5377   -5.7606   -2.2906 H       1  LIG11       0.0514
     16 H           4.6501   -4.3877   -2.3194 H       1  LIG11       0.0514
     17 O           1.1321   -3.0098    7.7928 O.2     1  LIG11      -0.1261
     18 C           4.0146   -2.0853    0.1162 C.3     1  LIG11      -0.0064
     19 C           5.4621   -2.3012   -0.3594 C.ar    1  LIG11      -0.0455
     20 C           6.1470   -1.2864   -1.0400 C.ar    1  LIG11      -0.0585
     21 C           7.4721   -1.4710   -1.4469 C.ar    1  LIG11      -0.0615
     22 C           8.1232   -2.6789   -1.1831 C.ar    1  LIG11      -0.0617
     23 C           7.4449   -3.6982   -0.5096 C.ar    1  LIG11      -0.0615
     24 C           6.1211   -3.5091   -0.1011 C.ar    1  LIG11      -0.0585
     25 C          -0.1545   -4.5364    0.0534 C.3     1  LIG11      -0.0064
     26 C          -0.7183   -5.8652    0.5898 C.ar    1  LIG11      -0.0455
     27 C          -0.0930   -7.0825    0.2924 C.ar    1  LIG11      -0.0585
     28 C          -0.6273   -8.2882    0.7587 C.ar    1  LIG11      -0.0615
     29 C          -1.7891   -8.2877    1.5354 C.ar    1  LIG11      -0.0617
     30 C          -2.4162   -7.0770    1.8407 C.ar    1  LIG11      -0.0615
     31 C          -1.8804   -5.8735    1.3715 C.ar    1  LIG11      -0.0585
     32 C           2.5636   -4.5576    3.6347 C.ar    1  LIG11      -0.0279
     33 C           3.7546   -3.8377    3.7755 C.ar    1  LIG11      -0.0569
     34 C           3.9827   -3.0587    4.9124 C.ar    1  LIG11      -0.0593
     35 C           3.0354   -3.0216    5.9392 C.ar    1  LIG11      -0.0315
     36 C           1.8470   -3.7576    5.8373 C.ar    1  LIG11       0.1265
     37 C           1.6154   -4.4955    4.6663 C.ar    1  LIG11      -0.0268
     38 H           3.2532   -2.1682   -1.8562 H       1  LIG11       0.0531
     39 H           0.8683   -2.4613   -1.4119 H       1  LIG11       0.0638
     40 H           1.7158   -1.9567    1.5444 H       1  LIG11       0.0638
     41 H           0.3325   -3.8884    2.0104 H       1  LIG11       0.0531
     42 N           3.0217   -4.0756   -1.0361 N.am    1  LIG11      -0.2752
     43 N           2.0843   -4.6412    1.1514 N.am    1  LIG11      -0.2752
     44 H           3.2275   -6.0634    2.3267 H       1  LIG11       0.0514
     45 H           1.4798   -6.1015    2.5339 H       1  LIG11       0.0514
     46 H           1.0338   -5.2698   -3.0681 H       1  LIG11       0.0621
     47 H          -0.1655   -4.5563   -5.1056 H       1  LIG11       0.0618
     48 O           3.4626   -5.9470    0.0321 O.2     1  LIG11      -0.2524
     49 O           1.6215   -0.6095   -0.8751 O.3     1  LIG11      -0.3873
     50 O          -0.2628   -1.7159    1.0165 O.3     1  LIG11      -0.3873
     51 H           0.9841   -3.2219   -6.8225 H       1  LIG11       0.0640
     52 H           4.5214   -3.1394   -4.3654 H       1  LIG11       0.0643
     53 H           3.9071   -2.5864    1.0853 H       1  LIG11       0.0332
     54 H           3.8657   -1.0074    0.2884 H       1  LIG11       0.0332
     55 H           5.6551   -0.3430   -1.2545 H       1  LIG11       0.0620
     56 H           7.9981   -0.6758   -1.9671 H       1  LIG11       0.0618
     57 H           9.1519   -2.8245   -1.4998 H       1  LIG11       0.0618
     58 H           7.9484   -4.6377   -0.3026 H       1  LIG11       0.0618
     59 H           5.6085   -4.3093    0.4222 H       1  LIG11       0.0620
     60 H           0.3387   -4.7354   -0.9040 H       1  LIG11       0.0332
     61 H          -1.0055   -3.8681   -0.1524 H       1  LIG11       0.0332
     62 H           0.8122   -7.0989   -0.3062 H       1  LIG11       0.0620
     63 H          -0.1408   -9.2285    0.5170 H       1  LIG11       0.0618
     64 H          -2.2032   -9.2235    1.9001 H       1  LIG11       0.0618
     65 H          -3.3210   -7.0733    2.4417 H       1  LIG11       0.0618
     66 H          -2.3789   -4.9412    1.6171 H       1  LIG11       0.0620
     67 H           4.5170   -3.8887    3.0058 H       1  LIG11       0.0621
     68 H           4.9001   -2.4838    5.0035 H       1  LIG11       0.0618
     69 H           3.2438   -2.4148    6.8153 H       1  LIG11       0.0640
     70 H           0.6857   -5.0407    4.5494 H       1  LIG11       0.0643
     71 H           0.7743   -0.1774   -0.9194 H       1  LIG11       0.2100
     72 H          -0.2231   -0.7671    1.0894 H       1  LIG11       0.2100
     73 O          -0.0028   -4.5109    6.7853 O.2     1  LIG11      -0.1261
     74 N           3.5191   -2.4290   -6.7137 N.pl3   1  LIG11       0.0564
     75 O           4.5679   -1.8939   -6.4276 O.2     1  LIG11      -0.1261
     76 O           3.0273   -2.3911   -7.8215 O.2     1  LIG11      -0.1261
@<TRIPOS>BOND
     1    76    74    2
     2    51    11    1
     3    74    75    2
     4    74    12    1
     5    11    12   ar
     6    11    10   ar
     7    12    13   ar
     8    47    10    1
     9    10     9   ar
    10    13    52    1
    11    13     8   ar
    12     9     8   ar
    13     9    46    1
    14     8     2    1
    15    16     2    1
    16    15     2    1
    17     2    42    1
    18    56    21    1
    19    38     3    1
    20    57    22    1
    21    21    22   ar
    22    21    20   ar
    23    39     4    1
    24    55    20    1
    25    22    23   ar
    26    20    19   ar
    27    42     3    1
    28    42     1   am
    29    71    49    1
    30    60    25    1
    31     3     4    1
    32     3    18    1
    33    49     4    1
    34     4     5    1
    35    23    58    1
    36    23    24   ar
    37    19    24   ar
    38    19    18    1
    39    62    27    1
    40    61    25    1
    41    24    59    1
    42    48     1    2
    43     1    43   am
    44    25    26    1
    45    25     6    1
    46    18    54    1
    47    18    53    1
    48    27    26   ar
    49    27    28   ar
    50    63    28    1
    51    26    31   ar
    52    28    29   ar
    53     5    50    1
    54     5     6    1
    55     5    40    1
    56    50    72    1
    57     6    43    1
    58     6    41    1
    59    43     7    1
    60    31    66    1
    61    31    30   ar
    62    29    30   ar
    63    29    64    1
    64    30    65    1
    65    44     7    1
    66     7    45    1
    67     7    32    1
    68    67    33    1
    69    32    33   ar
    70    32    37   ar
    71    33    34   ar
    72    70    37    1
    73    37    36   ar
    74    34    68    1
    75    34    35   ar
    76    36    35   ar
    77    36    14    1
    78    35    69    1
    79    73    14    2
    80    14    17    2
