@<TRIPOS>MOLECULE
Mol_64
 77 82 0 0 0
SMALL
GASTEIGER
Energy = 0

@<TRIPOS>ATOM
      1 C           2.2655   -5.2053    0.5832 C.2     1  LIG11       0.3060
      2 C           3.2918   -5.4488   -1.5970 C.3     1  LIG11       0.0416
      3 C           2.7779   -3.1290   -0.6497 C.3     1  LIG11       0.0601
      4 C           1.4268   -2.3799   -0.7488 C.3     1  LIG11       0.1016
      5 C           0.6625   -2.3984    0.5987 C.3     1  LIG11       0.1016
      6 C           0.2924   -3.8252    1.0661 C.3     1  LIG11       0.0602
      7 C           1.3755   -5.2674    2.8634 C.3     1  LIG11       0.0430
      8 C           3.0939   -4.8436   -2.9957 C.ar    1  LIG11      -0.0295
      9 C           4.1836   -4.4890   -3.7995 C.ar    1  LIG11      -0.0493
     10 C           3.9832   -3.8411   -5.0238 C.ar    1  LIG11      -0.0176
     11 C           2.6840   -3.5350   -5.4502 C.ar    1  LIG11      -0.0179
     12 C           1.5924   -3.9154   -4.6609 C.ar    1  LIG11      -0.0537
     13 C           1.7994   -4.6141   -3.4705 C.ar    1  LIG11      -0.0565
     14 C           5.0737   -3.4912   -5.8308 C.ar    1  LIG11      -0.0540
     15 C           4.8706   -2.8347   -7.0472 C.ar    1  LIG11      -0.0612
     16 C           3.5754   -2.5140   -7.4608 C.ar    1  LIG11      -0.0612
     17 C           2.4839   -2.8589   -6.6585 C.ar    1  LIG11      -0.0540
     18 C           3.7443   -2.5376    0.4210 C.3     1  LIG11      -0.0064
     19 C           5.2049   -2.4935   -0.0630 C.ar    1  LIG11      -0.0455
     20 C           5.6670   -1.3692   -0.7589 C.ar    1  LIG11      -0.0585
     21 C           6.9935   -1.2946   -1.1924 C.ar    1  LIG11      -0.0615
     22 C           7.8695   -2.3528   -0.9382 C.ar    1  LIG11      -0.0617
     23 C           7.4142   -3.4803   -0.2485 C.ar    1  LIG11      -0.0615
     24 C           6.0859   -3.5524    0.1845 C.ar    1  LIG11      -0.0585
     25 C          -0.6495   -4.5856    0.0864 C.3     1  LIG11      -0.0064
     26 C          -1.1627   -5.9056    0.6849 C.ar    1  LIG11      -0.0455
     27 C          -0.5971   -7.1301    0.3069 C.ar    1  LIG11      -0.0585
     28 C          -1.0907   -8.3307    0.8256 C.ar    1  LIG11      -0.0615
     29 C          -2.1450   -8.3157    1.7423 C.ar    1  LIG11      -0.0617
     30 C          -2.7041   -7.0970    2.1359 C.ar    1  LIG11      -0.0615
     31 C          -2.2147   -5.8980    1.6083 C.ar    1  LIG11      -0.0585
     32 C           1.9701   -4.3244    3.9282 C.ar    1  LIG11      -0.0120
     33 C           1.1650   -3.7277    4.9074 C.ar    1  LIG11       0.0322
     34 N           1.6955   -2.9281    5.8565 N.ar    1  LIG11      -0.2629
     35 C           3.0165   -2.6622    5.9030 C.ar    1  LIG11       0.0276
     36 C           3.8708   -3.2126    4.9444 C.ar    1  LIG11      -0.0433
     37 C           3.3444   -4.0605    3.9647 C.ar    1  LIG11      -0.0542
     38 H           2.8337   -6.4515   -1.6342 H       1  LIG11       0.0514
     39 H           4.3601   -5.5754   -1.3627 H       1  LIG11       0.0514
     40 H           3.2631   -2.8482   -1.5989 H       1  LIG11       0.0531
     41 H           0.8289   -2.8483   -1.5468 H       1  LIG11       0.0638
     42 N           2.6805   -4.5959   -0.5648 N.am    1  LIG11      -0.2752
     43 N           1.3902   -4.6981    1.5000 N.am    1  LIG11      -0.2752
     44 H           1.2855   -1.9643    1.3981 H       1  LIG11       0.0638
     45 H          -0.3441   -3.6166    1.9440 H       1  LIG11       0.0531
     46 H           1.9329   -6.2101    2.9616 H       1  LIG11       0.0515
     47 H           0.3396   -5.5209    3.1370 H       1  LIG11       0.0515
     48 O           2.7255   -6.3143    0.7978 O.2     1  LIG11      -0.2524
     49 O           1.7020   -1.0255   -1.1592 O.3     1  LIG11      -0.3873
     50 O          -0.5683   -1.6484    0.5144 O.3     1  LIG11      -0.3873
     51 H           5.1908   -4.7145   -3.4646 H       1  LIG11       0.0627
     52 H           0.5791   -3.6731   -4.9669 H       1  LIG11       0.0624
     53 H           0.9453   -4.9751   -2.9129 H       1  LIG11       0.0621
     54 H           6.0864   -3.7267   -5.5187 H       1  LIG11       0.0624
     55 H           5.7193   -2.5730   -7.6720 H       1  LIG11       0.0618
     56 H           3.4166   -1.9991   -8.4033 H       1  LIG11       0.0618
     57 H           1.4821   -2.5977   -6.9863 H       1  LIG11       0.0624
     58 H           3.6752   -3.1096    1.3529 H       1  LIG11       0.0332
     59 H           3.4740   -1.4987    0.6613 H       1  LIG11       0.0332
     60 H           4.9960   -0.5415   -0.9676 H       1  LIG11       0.0620
     61 H           7.3428   -0.4151   -1.7255 H       1  LIG11       0.0618
     62 H           8.9001   -2.2971   -1.2760 H       1  LIG11       0.0618
     63 H           8.0967   -4.3008   -0.0489 H       1  LIG11       0.0618
     64 H           5.7420   -4.4342    0.7155 H       1  LIG11       0.0620
     65 H          -0.1198   -4.8303   -0.8390 H       1  LIG11       0.0332
     66 H          -1.5181   -3.9642   -0.1858 H       1  LIG11       0.0332
     67 H           0.2294   -7.1609   -0.3960 H       1  LIG11       0.0620
     68 H          -0.6553   -9.2760    0.5155 H       1  LIG11       0.0618
     69 H          -2.5279   -9.2481    2.1466 H       1  LIG11       0.0618
     70 H          -3.5209   -7.0835    2.8513 H       1  LIG11       0.0618
     71 H          -2.6596   -4.9580    1.9184 H       1  LIG11       0.0620
     72 H           0.0957   -3.9037    4.9276 H       1  LIG11       0.0833
     73 H           3.4064   -2.0215    6.6882 H       1  LIG11       0.0829
     74 H           4.9323   -2.9842    4.9667 H       1  LIG11       0.0633
     75 H           4.0088   -4.5205    3.2412 H       1  LIG11       0.0622
     76 H           0.9155   -0.5286   -1.3611 H       1  LIG11       0.2100
     77 H          -0.4501   -0.7036    0.5374 H       1  LIG11       0.2100
@<TRIPOS>BOND
     1    56    16    1
     2    55    15    1
     3    16    15   ar
     4    16    17   ar
     5    15    14   ar
     6    57    17    1
     7    17    11   ar
     8    14    54    1
     9    14    10   ar
    10    11    10   ar
    11    11    12   ar
    12    10     9   ar
    13    52    12    1
    14    12    13   ar
    15     9    51    1
    16     9     8   ar
    17    13     8   ar
    18    13    53    1
    19     8     2    1
    20    61    21    1
    21    38     2    1
    22    40     3    1
    23     2    39    1
    24     2    42    1
    25    41     4    1
    26    76    49    1
    27    62    22    1
    28    21    22   ar
    29    21    20   ar
    30    49     4    1
    31    60    20    1
    32    22    23   ar
    33    65    25    1
    34    20    19   ar
    35     4     3    1
    36     4     5    1
    37     3    42    1
    38     3    18    1
    39    42     1   am
    40    67    27    1
    41    23    63    1
    42    23    24   ar
    43    66    25    1
    44    19    24   ar
    45    19    18    1
    46    25    26    1
    47    25     6    1
    48    24    64    1
    49    27    26   ar
    50    27    28   ar
    51    18    59    1
    52    18    58    1
    53    50    77    1
    54    50     5    1
    55    68    28    1
    56     1    48    2
    57     1    43   am
    58     5     6    1
    59     5    44    1
    60    26    31   ar
    61    28    29   ar
    62     6    43    1
    63     6    45    1
    64    43     7    1
    65    31    71    1
    66    31    30   ar
    67    29    30   ar
    68    29    69    1
    69    30    70    1
    70     7    46    1
    71     7    47    1
    72     7    32    1
    73    75    37    1
    74    32    37   ar
    75    32    33   ar
    76    37    36   ar
    77    33    72    1
    78    33    34   ar
    79    36    74    1
    80    36    35   ar
    81    34    35   ar
    82    35    73    1
