@<TRIPOS>MOLECULE
Mol_57
 78 83 0 0 0
SMALL
GASTEIGER
Energy = 0

@<TRIPOS>ATOM
      1 C           2.4287   -5.3196    0.7997 C.2     1  LIG11       0.3060
      2 C           3.3670   -5.5840   -1.4180 C.3     1  LIG11       0.0416
      3 C           2.8557   -3.2519   -0.4855 C.3     1  LIG11       0.0601
      4 C           1.4884   -2.5319   -0.5513 C.3     1  LIG11       0.1016
      5 C           0.7701   -2.5521    0.8224 C.3     1  LIG11       0.1016
      6 C           0.4356   -3.9828    1.3100 C.3     1  LIG11       0.0601
      7 C           1.6023   -5.3554    3.1111 C.3     1  LIG11       0.0416
      8 C           3.2028   -4.9385   -2.8029 C.ar    1  LIG11      -0.0295
      9 C           4.3082   -4.4736   -3.5238 C.ar    1  LIG11      -0.0493
     10 C           4.1334   -3.7909   -4.7351 C.ar    1  LIG11      -0.0176
     11 C           2.8408   -3.5727   -5.2300 C.ar    1  LIG11      -0.0179
     12 C           1.7374   -4.0622   -4.5238 C.ar    1  LIG11      -0.0537
     13 C           1.9210   -4.7749   -3.3359 C.ar    1  LIG11      -0.0565
     14 C           5.2384   -3.3205   -5.4537 C.ar    1  LIG11      -0.0540
     15 C           5.0586   -2.6359   -6.6596 C.ar    1  LIG11      -0.0612
     16 C           3.7691   -2.4072   -7.1456 C.ar    1  LIG11      -0.0612
     17 C           2.6629   -2.8689   -6.4284 C.ar    1  LIG11      -0.0540
     18 C           3.8522   -2.6136    0.5258 C.3     1  LIG11      -0.0064
     19 C           5.3001   -2.5699    0.0023 C.ar    1  LIG11      -0.0455
     20 C           6.1323   -3.6916    0.0901 C.ar    1  LIG11      -0.0585
     21 C           7.4496   -3.6337   -0.3772 C.ar    1  LIG11      -0.0615
     22 C           7.9490   -2.4495   -0.9269 C.ar    1  LIG11      -0.0617
     23 C           7.1235   -1.3263   -1.0190 C.ar    1  LIG11      -0.0615
     24 C           5.8038   -1.3914   -0.5634 C.ar    1  LIG11      -0.0585
     25 C          -0.5034   -4.7768    0.3516 C.3     1  LIG11      -0.0064
     26 C          -0.9038   -6.1469    0.9252 C.ar    1  LIG11      -0.0455
     27 C          -1.9250   -6.2462    1.8774 C.ar    1  LIG11      -0.0585
     28 C          -2.3032   -7.4936    2.3847 C.ar    1  LIG11      -0.0615
     29 C          -1.6622   -8.6544    1.9433 C.ar    1  LIG11      -0.0617
     30 C          -0.6427   -8.5636    0.9925 C.ar    1  LIG11      -0.0615
     31 C          -0.2633   -7.3150    0.4916 C.ar    1  LIG11      -0.0585
     32 C           2.1817   -4.3613    4.1394 C.ar    1  LIG11      -0.0300
     33 C           1.4031   -3.8368    5.1807 C.ar    1  LIG11      -0.0571
     34 C           1.9521   -2.9404    6.1047 C.ar    1  LIG11      -0.0615
     35 C           3.2759   -2.5145    5.9693 C.ar    1  LIG11      -0.0617
     36 C           4.0595   -3.0268    4.9324 C.ar    1  LIG11      -0.0615
     37 C           3.5277   -3.9845    4.0626 C.ar    1  LIG11      -0.0571
     38 H           2.8612   -6.5627   -1.4636 H       1  LIG11       0.0514
     39 H           4.4273   -5.7730   -1.1954 H       1  LIG11       0.0514
     40 H           3.3003   -2.9610   -1.4496 H       1  LIG11       0.0531
     41 H           0.8817   -3.0219   -1.3295 H       1  LIG11       0.0638
     42 N           2.7910   -4.7207   -0.3729 N.am    1  LIG11      -0.2752
     43 N           1.5661   -4.8184    1.7329 N.am    1  LIG11      -0.2752
     44 H           1.4128   -2.1051    1.5993 H       1  LIG11       0.0638
     45 H          -0.1890   -3.7861    2.1995 H       1  LIG11       0.0531
     46 H           2.2047   -6.2693    3.2173 H       1  LIG11       0.0514
     47 H           0.5841   -5.6461    3.4134 H       1  LIG11       0.0514
     48 O           2.9249   -6.4124    1.0176 O.2     1  LIG11      -0.2524
     49 O           1.7293   -1.1801   -0.9949 O.3     1  LIG11      -0.3873
     50 O          -0.4627   -1.8047    0.7687 O.3     1  LIG11      -0.3873
     51 H           5.3085   -4.6329   -3.1343 H       1  LIG11       0.0627
     52 H           0.7293   -3.8933   -4.8900 H       1  LIG11       0.0624
     53 H           1.0618   -5.1927   -2.8240 H       1  LIG11       0.0621
     54 H           6.2463   -3.4812   -5.0833 H       1  LIG11       0.0624
     55 H           5.9196   -2.2818   -7.2182 H       1  LIG11       0.0618
     56 H           3.6273   -1.8717   -8.0798 H       1  LIG11       0.0618
     57 H           1.6654   -2.6771   -6.8115 H       1  LIG11       0.0624
     58 H           3.8257   -3.1697    1.4653 H       1  LIG11       0.0332
     59 H           3.5628   -1.5783    0.7580 H       1  LIG11       0.0332
     60 H           5.7593   -4.6119    0.5267 H       1  LIG11       0.0620
     61 H           8.0892   -4.5086   -0.3118 H       1  LIG11       0.0618
     62 H           8.9747   -2.4001   -1.2806 H       1  LIG11       0.0618
     63 H           7.5072   -0.4031   -1.4433 H       1  LIG11       0.0618
     64 H           5.1733   -0.5123   -0.6520 H       1  LIG11       0.0620
     65 H          -0.0136   -4.9684   -0.6096 H       1  LIG11       0.0332
     66 H          -1.4189   -4.1989    0.1448 H       1  LIG11       0.0332
     67 H          -2.4327   -5.3526    2.2256 H       1  LIG11       0.0620
     68 H          -3.0972   -7.5633    3.1220 H       1  LIG11       0.0618
     69 H          -1.9545   -9.6237    2.3364 H       1  LIG11       0.0618
     70 H          -0.1456   -9.4633    0.6419 H       1  LIG11       0.0618
     71 H           0.5342   -7.2656   -0.2424 H       1  LIG11       0.0620
     72 H           0.3637   -4.1277    5.2895 H       1  LIG11       0.0621
     73 H           1.3518   -2.5730    6.9323 H       1  LIG11       0.0618
     74 H           3.6938   -1.7936    6.6668 H       1  LIG11       0.0618
     75 H           5.0828   -2.6842    4.8085 H       1  LIG11       0.0618
     76 H           4.1750   -4.4492    3.3280 H       1  LIG11       0.0621
     77 H           0.9379   -0.7102   -1.2380 H       1  LIG11       0.2100
     78 H          -0.3352   -0.8639    0.6912 H       1  LIG11       0.2100
@<TRIPOS>BOND
     1    56    16    1
     2    55    15    1
     3    16    15   ar
     4    16    17   ar
     5    57    17    1
     6    15    14   ar
     7    17    11   ar
     8    14    54    1
     9    14    10   ar
    10    11    10   ar
    11    11    12   ar
    12    52    12    1
    13    10     9   ar
    14    12    13   ar
    15     9    51    1
    16     9     8   ar
    17    13    53    1
    18    13     8   ar
    19     8     2    1
    20    38     2    1
    21    40     3    1
    22    63    23    1
    23     2    39    1
    24     2    42    1
    25    41     4    1
    26    62    22    1
    27    77    49    1
    28    23    22   ar
    29    23    24   ar
    30    49     4    1
    31    22    21   ar
    32    64    24    1
    33    65    25    1
    34    24    19   ar
    35     4     3    1
    36     4     5    1
    37     3    42    1
    38     3    18    1
    39    21    61    1
    40    21    20   ar
    41    42     1   am
    42    71    31    1
    43    19    20   ar
    44    19    18    1
    45    20    60    1
    46    66    25    1
    47    25    26    1
    48    25     6    1
    49    31    26   ar
    50    31    30   ar
    51    18    59    1
    52    18    58    1
    53    70    30    1
    54    78    50    1
    55    50     5    1
    56     1    48    2
    57     1    43   am
    58     5     6    1
    59     5    44    1
    60    26    27   ar
    61    30    29   ar
    62     6    43    1
    63     6    45    1
    64    43     7    1
    65    27    67    1
    66    27    28   ar
    67    29    69    1
    68    29    28   ar
    69    28    68    1
    70     7    46    1
    71     7    47    1
    72     7    32    1
    73    76    37    1
    74    37    32   ar
    75    37    36   ar
    76    32    33   ar
    77    75    36    1
    78    36    35   ar
    79    33    72    1
    80    33    34   ar
    81    35    34   ar
    82    35    74    1
    83    34    73    1
