@<TRIPOS>MOLECULE
Mol_100
 96 101 0 0 0
SMALL
GASTEIGER
Energy = 0

@<TRIPOS>ATOM
      1 C           2.8759   -5.1846    0.1427 C.2     1  LIG11       0.3060
      2 C           3.5729   -5.0185   -2.1728 C.3     1  LIG11       0.0416
      3 C           3.1137   -2.9210   -0.7943 C.3     1  LIG11       0.0601
      4 C           1.7650   -2.2227   -0.4934 C.3     1  LIG11       0.1016
      5 C           1.2604   -2.5287    0.9391 C.3     1  LIG11       0.1016
      6 C           0.9287   -4.0281    1.1199 C.3     1  LIG11       0.0601
      7 C           2.2944   -5.7617    2.4154 C.3     1  LIG11       0.0418
      8 C           3.0106   -4.4171   -3.4731 C.ar    1  LIG11      -0.0293
      9 C           3.8695   -3.9987   -4.4940 C.ar    1  LIG11      -0.0449
     10 C           3.3567   -3.5167   -5.7054 C.ar    1  LIG11       0.0374
     11 C           1.9772   -3.3536   -5.8631 C.ar    1  LIG11      -0.0496
     12 C           1.1115   -3.7309   -4.8370 C.ar    1  LIG11      -0.0607
     13 C           1.6312   -4.2902   -3.6682 C.ar    1  LIG11      -0.0570
     14 C           4.2647   -3.1685   -6.8630 C.2     1  LIG11       0.2493
     15 C           6.2740   -3.7140   -8.1721 C.ar    1  LIG11       0.1254
     16 N           7.4903   -4.2722   -8.0140 N.ar    1  LIG11      -0.2370
     17 C           4.2601   -2.4834    0.1711 C.3     1  LIG11      -0.0064
     18 C           5.6385   -2.4766   -0.5173 C.ar    1  LIG11      -0.0455
     19 C           6.3851   -3.6545   -0.6367 C.ar    1  LIG11      -0.0585
     20 C           7.6219   -3.6495   -1.2900 C.ar    1  LIG11      -0.0615
     21 C           8.1478   -2.4541   -1.7875 C.ar    1  LIG11      -0.0617
     22 C           7.4226   -1.2683   -1.6472 C.ar    1  LIG11      -0.0615
     23 C           6.1703   -1.2841   -1.0257 C.ar    1  LIG11      -0.0585
     24 C          -0.1159   -4.5835    0.1152 C.3     1  LIG11      -0.0064
     25 C          -0.8146   -5.8625    0.6016 C.ar    1  LIG11      -0.0455
     26 C          -0.3343   -7.1255    0.2344 C.ar    1  LIG11      -0.0585
     27 C          -1.0033   -8.2826    0.6445 C.ar    1  LIG11      -0.0615
     28 C          -2.1485   -8.1849    1.4394 C.ar    1  LIG11      -0.0617
     29 C          -2.6243   -6.9274    1.8205 C.ar    1  LIG11      -0.0615
     30 C          -1.9576   -5.7714    1.4041 C.ar    1  LIG11      -0.0585
     31 C           1.7853   -5.0834    3.6953 C.ar    1  LIG11      -0.0231
     32 C           0.5185   -5.3968    4.1985 C.ar    1  LIG11      -0.0150
     33 C           0.0405   -4.7724    5.3511 C.ar    1  LIG11       0.1239
     34 C           0.8309   -3.8333    6.0196 C.ar    1  LIG11       0.0218
     35 C           2.0931   -3.4976    5.5130 C.ar    1  LIG11       0.1239
     36 C           2.5648   -4.1305    4.3592 C.ar    1  LIG11      -0.0150
     37 O          -1.2366   -5.0868    5.8151 O.3     1  LIG11      -0.4950
     38 C          -1.2745   -6.0786    6.8520 C.3     1  LIG11       0.0788
     39 O           2.8960   -2.5275    6.1235 O.3     1  LIG11      -0.4950
     40 C           3.0744   -2.5606    7.5487 C.3     1  LIG11       0.0788
     41 N           3.0735   -4.3821   -0.9429 N.am    1  LIG11      -0.2752
     42 N           2.0966   -4.9154    1.2294 N.am    1  LIG11      -0.2752
     43 N           5.3695   -3.9125   -7.0965 N.am    1  LIG11      -0.2664
     44 C           8.4301   -4.2174   -8.9778 C.ar    1  LIG11       0.0403
     45 H           3.3143   -6.0878   -2.2299 H       1  LIG11       0.0514
     46 H           4.6685   -4.9521   -2.1782 H       1  LIG11       0.0514
     47 O           3.4581   -6.2571    0.1417 O.2     1  LIG11      -0.2524
     48 O           1.9563   -0.8058   -0.6923 O.3     1  LIG11      -0.3873
     49 O           0.0669   -1.7727    1.2324 O.3     1  LIG11      -0.3873
     50 O           3.9280   -2.2107   -7.5380 O.2     1  LIG11      -0.2698
     51 H           3.3916   -2.4822   -1.7683 H       1  LIG11       0.0531
     52 C           8.1674   -3.5365  -10.1698 C.ar    1  LIG11      -0.0405
     53 H           1.0330   -2.5678   -1.2418 H       1  LIG11       0.0638
     54 C           6.9249   -2.9233  -10.3492 C.ar    1  LIG11      -0.0568
     55 C           5.9566   -3.0195   -9.3472 C.ar    1  LIG11      -0.0215
     56 H           2.0243   -2.2770    1.6953 H       1  LIG11       0.0638
     57 H           0.3517   -4.0184    2.0545 H       1  LIG11       0.0531
     58 H           3.3617   -5.9858    2.5790 H       1  LIG11       0.0514
     59 H           1.7761   -6.7213    2.2620 H       1  LIG11       0.0514
     60 H           4.9420   -4.0459   -4.3424 H       1  LIG11       0.0628
     61 H           1.5749   -2.9432   -6.7843 H       1  LIG11       0.0625
     62 H           0.0395   -3.5970   -4.9505 H       1  LIG11       0.0618
     63 H           0.9420   -4.6337   -2.9189 H       1  LIG11       0.0621
     64 H           4.3029   -3.1418    1.0518 H       1  LIG11       0.0332
     65 H           4.0754   -1.4633    0.5418 H       1  LIG11       0.0332
     66 H           6.0064   -4.5822   -0.2193 H       1  LIG11       0.0620
     67 H           8.1778   -4.5744   -1.4102 H       1  LIG11       0.0618
     68 H           9.1163   -2.4451   -2.2793 H       1  LIG11       0.0618
     69 H           7.8332   -0.3347   -2.0209 H       1  LIG11       0.0618
     70 H           5.6153   -0.3552   -0.9395 H       1  LIG11       0.0620
     71 H           0.3938   -4.8346   -0.8125 H       1  LIG11       0.0332
     72 H          -0.8858   -3.8281   -0.1094 H       1  LIG11       0.0332
     73 H           0.5594   -7.2168   -0.3755 H       1  LIG11       0.0620
     74 H          -0.6342   -9.2587    0.3442 H       1  LIG11       0.0618
     75 H          -2.6674   -9.0833    1.7597 H       1  LIG11       0.0618
     76 H          -3.5132   -6.8487    2.4392 H       1  LIG11       0.0618
     77 H          -2.3360   -4.7996    1.7051 H       1  LIG11       0.0620
     78 H          -0.1147   -6.1159    3.6899 H       1  LIG11       0.0657
     79 H           0.4435   -3.3721    6.9188 H       1  LIG11       0.0691
     80 H           3.5461   -3.8682    3.9777 H       1  LIG11       0.0657
     81 H          -0.8613   -5.6726    7.7875 H       1  LIG11       0.0660
     82 H          -0.7149   -6.9830    6.5646 H       1  LIG11       0.0660
     83 H          -2.3264   -6.3550    7.0177 H       1  LIG11       0.0660
     84 H           2.1547   -2.2911    8.0867 H       1  LIG11       0.0660
     85 H           3.8464   -1.8196    7.8038 H       1  LIG11       0.0660
     86 H           3.4184   -3.5547    7.8735 H       1  LIG11       0.0660
     87 H           5.5901   -4.6717   -6.4892 H       1  LIG11       0.1566
     88 C           9.7731   -4.9048   -8.7446 C.3     1  LIG11      -0.0223
     89 H           1.1452   -0.3084   -0.7349 H       1  LIG11       0.2100
     90 H           0.2218   -0.8375    1.3214 H       1  LIG11       0.2100
     91 H           8.9195   -3.4858  -10.9495 H       1  LIG11       0.0635
     92 H           4.9904   -2.5673   -9.5215 H       1  LIG11       0.0652
     93 H           6.7105   -2.3794  -11.2640 H       1  LIG11       0.0619
     94 H           9.8240   -5.8145   -9.3605 H       1  LIG11       0.0292
     95 H           9.8718   -5.1800   -7.6836 H       1  LIG11       0.0292
     96 H          10.5942   -4.2260   -9.0179 H       1  LIG11       0.0292
@<TRIPOS>BOND
     1    93    54    1
     2    91    52    1
     3    54    52   ar
     4    54    55   ar
     5    52    44   ar
     6    92    55    1
     7    94    88    1
     8    55    15   ar
     9    96    88    1
    10    44    88    1
    11    44    16   ar
    12    88    95    1
    13    15    16   ar
    14    15    43    1
    15    50    14    2
    16    43    14   am
    17    43    87    1
    18    14    10    1
    19    61    11    1
    20    11    10   ar
    21    11    12   ar
    22    10     9   ar
    23    62    12    1
    24    12    13   ar
    25     9    60    1
    26     9     8   ar
    27    13     8   ar
    28    13    63    1
    29     8     2    1
    30    68    21    1
    31    45     2    1
    32    46     2    1
    33     2    41    1
    34    69    22    1
    35    21    22   ar
    36    21    20   ar
    37    51     3    1
    38    22    23   ar
    39    67    20    1
    40    20    19   ar
    41    53     4    1
    42    23    70    1
    43    23    18   ar
    44    41     3    1
    45    41     1   am
    46    71    24    1
    47     3     4    1
    48     3    17    1
    49    89    48    1
    50    48     4    1
    51    19    18   ar
    52    19    66    1
    53    18    17    1
    54     4     5    1
    55    73    26    1
    56    72    24    1
    57    24    25    1
    58    24     6    1
    59    47     1    2
    60     1    42   am
    61    17    65    1
    62    17    64    1
    63    26    25   ar
    64    26    27   ar
    65    74    27    1
    66    25    30   ar
    67    27    28   ar
    68     5     6    1
    69     5    49    1
    70     5    56    1
    71     6    42    1
    72     6    57    1
    73    42     7    1
    74    49    90    1
    75    30    77    1
    76    30    29   ar
    77    28    75    1
    78    28    29   ar
    79    29    76    1
    80    59     7    1
    81     7    58    1
    82     7    31    1
    83    78    32    1
    84    31    32   ar
    85    31    36   ar
    86    80    36    1
    87    32    33   ar
    88    36    35   ar
    89    33    37    1
    90    33    34   ar
    91    35    34   ar
    92    35    39    1
    93    37    38    1
    94    34    79    1
    95    39    40    1
    96    82    38    1
    97    38    83    1
    98    38    81    1
    99    40    85    1
   100    40    86    1
   101    40    84    1
