@<TRIPOS>MOLECULE
Mol_10
 76 78 0 0 0
SMALL
GASTEIGER
Energy = 0

@<TRIPOS>ATOM
      1 C           2.7467   -4.6583    0.1868 C.2     1  LIG11       0.3054
      2 C           3.4685   -4.4630   -2.1365 C.3     1  LIG11       0.0168
      3 C           2.8944   -2.3954   -0.7744 C.3     1  LIG11       0.0598
      4 C           1.4889   -1.7697   -0.5955 C.3     1  LIG11       0.1016
      5 C           0.9146   -2.0661    0.8102 C.3     1  LIG11       0.1016
      6 C           0.7037   -3.5829    1.0297 C.3     1  LIG11       0.0598
      7 C           2.1285   -5.0704    2.5142 C.3     1  LIG11       0.0168
      8 C           2.4636   -4.2702   -3.3114 C.3     1  LIG11      -0.0347
      9 C           1.2065   -4.9125    5.6448 C.3     1  LIG11      -0.0626
     10 C           3.1656   -4.2699   -4.7015 C.3     1  LIG11      -0.0453
     11 C           2.6185   -4.6796    5.0339 C.3     1  LIG11      -0.0453
     12 C           3.4526   -3.7707    5.9797 C.3     1  LIG11      -0.0626
     13 C           2.1716   -3.8683   -5.8272 C.3     1  LIG11      -0.0626
     14 C           3.7943   -5.6553   -5.0104 C.3     1  LIG11      -0.0626
     15 H           3.6777   -5.5417   -2.0550 H       1  LIG11       0.0465
     16 H           4.4296   -3.9754   -2.3637 H       1  LIG11       0.0465
     17 H           3.2379   -1.9514   -1.7256 H       1  LIG11       0.0530
     18 C           3.9432   -1.8774    0.2543 C.3     1  LIG11      -0.0064
     19 C           5.3850   -2.0753   -0.2444 C.ar    1  LIG11      -0.0455
     20 C           6.0579   -3.2806   -0.0144 C.ar    1  LIG11      -0.0585
     21 C           7.3758   -3.4512   -0.4511 C.ar    1  LIG11      -0.0615
     22 C           8.0295   -2.4185   -1.1280 C.ar    1  LIG11      -0.0617
     23 C           7.3623   -1.2135   -1.3649 C.ar    1  LIG11      -0.0615
     24 C           6.0459   -1.0453   -0.9261 C.ar    1  LIG11      -0.0585
     25 C          -0.2371   -4.2618   -0.0096 C.3     1  LIG11      -0.0064
     26 C          -0.7637   -5.6134    0.5047 C.ar    1  LIG11      -0.0455
     27 C          -1.8125   -5.6505    1.4327 C.ar    1  LIG11      -0.0585
     28 C          -2.3112   -6.8719    1.8946 C.ar    1  LIG11      -0.0615
     29 C          -1.7668   -8.0713    1.4268 C.ar    1  LIG11      -0.0617
     30 C          -0.7206   -8.0425    0.5015 C.ar    1  LIG11      -0.0615
     31 C          -0.2155   -6.8185    0.0502 C.ar    1  LIG11      -0.0585
     32 C           2.5337   -4.0462    3.6122 C.3     1  LIG11      -0.0347
     33 H           0.8235   -2.1801   -1.3716 H       1  LIG11       0.0638
     34 H           1.6081   -1.7110    1.5900 H       1  LIG11       0.0638
     35 H           0.1186   -3.6046    1.9652 H       1  LIG11       0.0530
     36 H           2.9197   -5.8369    2.4875 H       1  LIG11       0.0465
     37 H           1.1982   -5.5948    2.7748 H       1  LIG11       0.0465
     38 H           1.9446   -3.3076   -3.2081 H       1  LIG11       0.0283
     39 H           1.6919   -5.0572   -3.2709 H       1  LIG11       0.0283
     40 H           1.2959   -5.3549    6.6489 H       1  LIG11       0.0232
     41 H           0.6033   -5.5980    5.0331 H       1  LIG11       0.0232
     42 N           2.9445   -3.8596   -0.9007 N.am    1  LIG11      -0.2796
     43 N           1.9218   -4.3747    1.2340 N.am    1  LIG11      -0.2796
     44 H           0.6648   -3.9583    5.7350 H       1  LIG11       0.0232
     45 H           3.9677   -3.5101   -4.6939 H       1  LIG11       0.0296
     46 H           3.1383   -5.6512    4.9650 H       1  LIG11       0.0296
     47 H           4.4887   -3.6836    5.6158 H       1  LIG11       0.0232
     48 O           3.3586   -5.7126    0.2252 O.2     1  LIG11      -0.2524
     49 O           1.5990   -0.3506   -0.8292 O.3     1  LIG11      -0.3873
     50 O          -0.3522   -1.4067    1.0152 O.3     1  LIG11      -0.3873
     51 H           3.4845   -4.1943    6.9957 H       1  LIG11       0.0232
     52 H           3.0129   -2.7630    6.0323 H       1  LIG11       0.0232
     53 H           1.7743   -2.8554   -5.6539 H       1  LIG11       0.0232
     54 H           1.3283   -4.5741   -5.8681 H       1  LIG11       0.0232
     55 H           2.6798   -3.8706   -6.8044 H       1  LIG11       0.0232
     56 H           3.0141   -6.4318   -5.0156 H       1  LIG11       0.0232
     57 H           4.5550   -5.9234   -4.2628 H       1  LIG11       0.0232
     58 H           4.2835   -5.6413   -5.9962 H       1  LIG11       0.0232
     59 H           3.8412   -2.3962    1.2164 H       1  LIG11       0.0332
     60 H           3.7872   -0.8030    0.4412 H       1  LIG11       0.0332
     61 H           5.5608   -4.0921    0.5070 H       1  LIG11       0.0620
     62 H           7.8930   -4.3872   -0.2633 H       1  LIG11       0.0618
     63 H           9.0522   -2.5506   -1.4689 H       1  LIG11       0.0618
     64 H           7.8684   -0.4083   -1.8895 H       1  LIG11       0.0618
     65 H           5.5405   -0.1041   -1.1181 H       1  LIG11       0.0620
     66 H           0.2827   -4.4242   -0.9647 H       1  LIG11       0.0332
     67 H          -1.1076   -3.6166   -0.2093 H       1  LIG11       0.0332
     68 H          -2.2485   -4.7266    1.7992 H       1  LIG11       0.0620
     69 H          -3.1226   -6.8915    2.6162 H       1  LIG11       0.0618
     70 H          -2.1560   -9.0214    1.7813 H       1  LIG11       0.0618
     71 H          -0.2997   -8.9728    0.1322 H       1  LIG11       0.0618
     72 H           0.6064   -6.8132   -0.6589 H       1  LIG11       0.0620
     73 H           3.5195   -3.6434    3.3297 H       1  LIG11       0.0283
     74 H           1.8310   -3.2000    3.6462 H       1  LIG11       0.0283
     75 H           0.7573    0.0894   -0.9009 H       1  LIG11       0.2100
     76 H          -0.2798   -0.4616    1.1085 H       1  LIG11       0.2100
@<TRIPOS>BOND
     1    55    13    1
     2    58    14    1
     3    54    13    1
     4    13    53    1
     5    13    10    1
     6    56    14    1
     7    14    10    1
     8    14    57    1
     9    10    45    1
    10    10     8    1
    11     8    39    1
    12     8    38    1
    13     8     2    1
    14    16     2    1
    15     2    15    1
    16     2    42    1
    17    64    23    1
    18    17     3    1
    19    63    22    1
    20    33     4    1
    21    23    22   ar
    22    23    24   ar
    23    22    21   ar
    24    65    24    1
    25    66    25    1
    26    24    19   ar
    27    75    49    1
    28    42     3    1
    29    42     1   am
    30    49     4    1
    31     3     4    1
    32     3    18    1
    33    72    31    1
    34     4     5    1
    35    21    62    1
    36    21    20   ar
    37    19    20   ar
    38    19    18    1
    39    67    25    1
    40    20    61    1
    41    25    26    1
    42    25     6    1
    43    31    30   ar
    44    31    26   ar
    45    71    30    1
    46     1    48    2
    47     1    43   am
    48    18    60    1
    49    18    59    1
    50    30    29   ar
    51    26    27   ar
    52     5    50    1
    53     5     6    1
    54     5    34    1
    55    50    76    1
    56     6    43    1
    57     6    35    1
    58    43     7    1
    59    29    70    1
    60    29    28   ar
    61    27    68    1
    62    27    28   ar
    63    28    69    1
    64    36     7    1
    65     7    37    1
    66     7    32    1
    67    73    32    1
    68    32    74    1
    69    32    11    1
    70    46    11    1
    71    41     9    1
    72    11     9    1
    73    11    12    1
    74    47    12    1
    75     9    44    1
    76     9    40    1
    77    12    52    1
    78    12    51    1
