@<TRIPOS>MOLECULE
Mol_22
 70 74 0 0 0
SMALL
GASTEIGER
Energy = 0

@<TRIPOS>ATOM
      1 C           2.8973   -4.9041    0.0604 C.2     1  LIG11       0.3061
      2 C           2.3268   -5.4134    2.3685 C.3     1  LIG11       0.0587
      3 C           0.8491   -3.8915    0.9600 C.3     1  LIG11       0.0602
      4 C           1.0205   -2.3667    0.7670 C.3     1  LIG11       0.1016
      5 C           1.5877   -2.0298   -0.6361 C.3     1  LIG11       0.1016
      6 C           3.0054   -2.6192   -0.8413 C.3     1  LIG11       0.0602
      7 C           3.6252   -4.6532   -2.2404 C.3     1  LIG11       0.0587
      8 C           2.4910   -4.4722    3.5693 C.ar    1  LIG11       0.0586
      9 C           1.4480   -4.2604    4.4782 C.ar    1  LIG11      -0.0388
     10 C           1.6594   -3.4485    5.5958 C.ar    1  LIG11      -0.0586
     11 C           2.9125   -2.8628    5.7896 C.ar    1  LIG11      -0.0436
     12 C           3.9196   -3.0915    4.8481 C.ar    1  LIG11       0.0279
     13 N           3.6760   -3.8522    3.7598 N.ar    1  LIG11      -0.2583
     14 H           3.2576   -6.0016    2.3642 H       1  LIG11       0.0530
     15 H           1.4984   -6.1190    2.5339 H       1  LIG11       0.0530
     16 H           0.2841   -3.9491    1.9056 H       1  LIG11       0.0531
     17 H           1.6971   -2.0081    1.5612 H       1  LIG11       0.0638
     18 C          -0.0938   -4.5523   -0.0908 C.3     1  LIG11      -0.0064
     19 C          -0.6928   -5.8637    0.4453 C.ar    1  LIG11      -0.0455
     20 C          -0.1262   -7.0999    0.1141 C.ar    1  LIG11      -0.0585
     21 C          -0.6865   -8.2869    0.5971 C.ar    1  LIG11      -0.0615
     22 C          -1.8141   -8.2467    1.4216 C.ar    1  LIG11      -0.0617
     23 C          -2.3840   -7.0157    1.7574 C.ar    1  LIG11      -0.0615
     24 C          -1.8244   -5.8309    1.2701 C.ar    1  LIG11      -0.0585
     25 C           4.0492   -2.1225    0.2051 C.3     1  LIG11      -0.0064
     26 C           5.4940   -2.3041   -0.2948 C.ar    1  LIG11      -0.0455
     27 C           6.1826   -3.5016   -0.0633 C.ar    1  LIG11      -0.0585
     28 C           7.5036   -3.6559   -0.4937 C.ar    1  LIG11      -0.0615
     29 C           8.1503   -2.6126   -1.1630 C.ar    1  LIG11      -0.0617
     30 C           7.4683   -1.4179   -1.4043 C.ar    1  LIG11      -0.0615
     31 C           6.1443   -1.2690   -0.9775 C.ar    1  LIG11      -0.0585
     32 C           2.8187   -4.2307   -3.4752 C.ar    1  LIG11       0.0586
     33 C           3.4005   -3.4713   -4.4967 C.ar    1  LIG11      -0.0388
     34 C           2.6550   -3.1601   -5.6367 C.ar    1  LIG11      -0.0586
     35 C           1.3362   -3.6097   -5.7351 C.ar    1  LIG11      -0.0436
     36 C           0.7930   -4.3522   -4.6831 C.ar    1  LIG11       0.0279
     37 N           1.5282   -4.6152   -3.5817 N.ar    1  LIG11      -0.2583
     38 H           0.9442   -2.4476   -1.4292 H       1  LIG11       0.0638
     39 H           3.3306   -2.1547   -1.7890 H       1  LIG11       0.0531
     40 H           3.5840   -5.7531   -2.2706 H       1  LIG11       0.0530
     41 H           4.6811   -4.3580   -2.3326 H       1  LIG11       0.0530
     42 N           2.0857   -4.6635    1.1262 N.am    1  LIG11      -0.2738
     43 N           3.0762   -4.0761   -1.0052 N.am    1  LIG11      -0.2738
     44 H           0.4795   -4.7244    4.3259 H       1  LIG11       0.0636
     45 H           0.8586   -3.2769    6.3086 H       1  LIG11       0.0619
     46 H           3.1010   -2.2399    6.6588 H       1  LIG11       0.0633
     47 H           4.9048   -2.6581    4.9880 H       1  LIG11       0.0829
     48 O           3.5197   -5.9532    0.0570 O.2     1  LIG11      -0.2524
     49 O          -0.2714   -1.7573    0.9773 O.3     1  LIG11      -0.3873
     50 O           1.6643   -0.6026   -0.8358 O.3     1  LIG11      -0.3873
     51 H           0.4403   -4.7545   -1.0312 H       1  LIG11       0.0332
     52 H          -0.9331   -3.8797   -0.3291 H       1  LIG11       0.0332
     53 H           0.7524   -7.1447   -0.5218 H       1  LIG11       0.0620
     54 H          -0.2456   -9.2429    0.3311 H       1  LIG11       0.0618
     55 H          -2.2467   -9.1683    1.8001 H       1  LIG11       0.0618
     56 H          -3.2618   -6.9813    2.3960 H       1  LIG11       0.0618
     57 H          -2.2775   -4.8812    1.5367 H       1  LIG11       0.0620
     58 H           3.9443   -2.6611    1.1587 H       1  LIG11       0.0332
     59 H           3.8912   -1.0524    0.4144 H       1  LIG11       0.0332
     60 H           5.6935   -4.3195    0.4555 H       1  LIG11       0.0620
     61 H           8.0309   -4.5867   -0.3075 H       1  LIG11       0.0618
     62 H           9.1783   -2.7303   -1.4933 H       1  LIG11       0.0618
     63 H           7.9681   -0.6047   -1.9226 H       1  LIG11       0.0618
     64 H           5.6259   -0.3371   -1.1797 H       1  LIG11       0.0620
     65 H           4.4255   -3.1261   -4.4138 H       1  LIG11       0.0636
     66 H           3.0969   -2.5770   -6.4389 H       1  LIG11       0.0619
     67 H           0.7428   -3.3852   -6.6164 H       1  LIG11       0.0633
     68 H          -0.2253   -4.7222   -4.7472 H       1  LIG11       0.0829
     69 H          -0.2388   -0.8105    1.0737 H       1  LIG11       0.2100
     70 H           0.8127   -0.1827   -0.9109 H       1  LIG11       0.2100
@<TRIPOS>BOND
     1    67    35    1
     2    66    34    1
     3    35    34   ar
     4    35    36   ar
     5    34    33   ar
     6    68    36    1
     7    36    37   ar
     8    33    65    1
     9    33    32   ar
    10    37    32   ar
    11    32     7    1
    12    41     7    1
    13    40     7    1
    14     7    43    1
    15    63    30    1
    16    39     6    1
    17    62    29    1
    18    38     5    1
    19    30    29   ar
    20    30    31   ar
    21    64    31    1
    22    29    28   ar
    23    51    18    1
    24    43     6    1
    25    43     1   am
    26    31    26   ar
    27    70    50    1
    28     6     5    1
    29     6    25    1
    30    50     5    1
    31     5     4    1
    32    53    20    1
    33    28    61    1
    34    28    27   ar
    35    52    18    1
    36    26    27   ar
    37    26    25    1
    38    18    19    1
    39    18     3    1
    40    27    60    1
    41    48     1    2
    42     1    42   am
    43    20    19   ar
    44    20    21   ar
    45    25    59    1
    46    25    58    1
    47    54    21    1
    48    19    24   ar
    49    21    22   ar
    50     4     3    1
    51     4    49    1
    52     4    17    1
    53     3    42    1
    54     3    16    1
    55    49    69    1
    56    42     2    1
    57    24    57    1
    58    24    23   ar
    59    22    23   ar
    60    22    55    1
    61    23    56    1
    62    14     2    1
    63     2    15    1
    64     2     8    1
    65     8    13   ar
    66     8     9   ar
    67    13    12   ar
    68    44     9    1
    69     9    10   ar
    70    12    47    1
    71    12    11   ar
    72    10    11   ar
    73    10    45    1
    74    11    46    1
