@<TRIPOS>MOLECULE
Mol_61
 80 85 0 0 0
SMALL
GASTEIGER
Energy = 0

@<TRIPOS>ATOM
      1 C           3.4074   -5.2018   -0.5377 C.2     1  LIG11       0.3060
      2 C           2.9937   -5.9268    1.7593 C.3     1  LIG11       0.0416
      3 C           1.4224   -4.2964    0.6078 C.3     1  LIG11       0.0601
      4 C           1.5920   -2.7616    0.5077 C.3     1  LIG11       0.1016
      5 C           2.0213   -2.3154   -0.9151 C.3     1  LIG11       0.1016
      6 C           3.4118   -2.8620   -1.3133 C.3     1  LIG11       0.0601
      7 C           3.9378   -4.7890   -2.8770 C.3     1  LIG11       0.0416
      8 C           3.0390   -5.1016    3.0599 C.ar    1  LIG11      -0.0295
      9 C           2.1519   -5.3291    4.1185 C.ar    1  LIG11      -0.0493
     10 C           2.1784   -4.5197    5.2639 C.ar    1  LIG11      -0.0176
     11 C           3.0629   -3.4352    5.3332 C.ar    1  LIG11      -0.0179
     12 C           3.9543   -3.2082    4.2812 C.ar    1  LIG11      -0.0537
     13 C           3.9978   -4.0947    3.2027 C.ar    1  LIG11      -0.0565
     14 C           1.3315   -4.7823    6.3471 C.ar    1  LIG11      -0.0540
     15 C           1.3518   -3.9610    7.4790 C.ar    1  LIG11      -0.0612
     16 C           2.2120   -2.8615    7.5300 C.ar    1  LIG11      -0.0612
     17 C           3.0607   -2.5944    6.4536 C.ar    1  LIG11      -0.0540
     18 C           0.3774   -4.8752   -0.3956 C.3     1  LIG11      -0.0064
     19 C          -0.4390   -6.0411    0.1912 C.ar    1  LIG11      -0.0455
     20 C          -1.6315   -5.7824    0.8793 C.ar    1  LIG11      -0.0585
     21 C          -2.3981   -6.8308    1.3967 C.ar    1  LIG11      -0.0615
     22 C          -1.9729   -8.1517    1.2347 C.ar    1  LIG11      -0.0617
     23 C          -0.7827   -8.4178    0.5517 C.ar    1  LIG11      -0.0615
     24 C          -0.0167   -7.3666    0.0370 C.ar    1  LIG11      -0.0585
     25 C           4.5591   -2.3968   -0.3744 C.3     1  LIG11      -0.0064
     26 C           5.9621   -2.6009   -0.9717 C.ar    1  LIG11      -0.0455
     27 C           6.5449   -1.5859   -1.7395 C.ar    1  LIG11      -0.0585
     28 C           7.8300   -1.7412   -2.2676 C.ar    1  LIG11      -0.0615
     29 C           8.5438   -2.9197   -2.0354 C.ar    1  LIG11      -0.0617
     30 C           7.9690   -3.9384   -1.2705 C.ar    1  LIG11      -0.0615
     31 C           6.6823   -3.7808   -0.7451 C.ar    1  LIG11      -0.0585
     32 C           3.1857   -4.1084   -4.0381 C.ar    1  LIG11      -0.0283
     33 C           1.8453   -4.4212   -4.2976 C.ar    1  LIG11      -0.0364
     34 C           1.1499   -3.8198   -5.3551 C.ar    1  LIG11       0.0248
     35 C           1.8308   -2.9381   -6.2019 C.ar    1  LIG11      -0.0410
     36 C           3.1653   -2.6109   -5.9490 C.ar    1  LIG11      -0.0597
     37 C           3.8302   -3.1719   -4.8553 C.ar    1  LIG11      -0.0570
     38 H           3.9782   -6.4161    1.6884 H       1  LIG11       0.0514
     39 H           2.2360   -6.7228    1.8249 H       1  LIG11       0.0514
     40 H           0.9451   -4.4192    1.5960 H       1  LIG11       0.0531
     41 H           2.3397   -2.4607    1.2610 H       1  LIG11       0.0638
     42 N           2.6719   -5.0678    0.6061 N.am    1  LIG11      -0.2752
     43 N           3.4785   -4.3058   -1.5664 N.am    1  LIG11      -0.2752
     44 H           1.3120   -2.6858   -1.6742 H       1  LIG11       0.0638
     45 H           3.6331   -2.3251   -2.2507 H       1  LIG11       0.0531
     46 H           3.7815   -5.8712   -3.0126 H       1  LIG11       0.0514
     47 H           5.0200   -4.6025   -2.9559 H       1  LIG11       0.0514
     48 O           4.0633   -6.2232   -0.6589 O.2     1  LIG11      -0.2524
     49 O           0.3304   -2.1673    0.8779 O.3     1  LIG11      -0.3873
     50 O           2.0777   -0.8771   -1.0133 O.3     1  LIG11      -0.3873
     51 H           1.4401   -6.1452    4.0526 H       1  LIG11       0.0627
     52 H           4.6236   -2.3529    4.2968 H       1  LIG11       0.0624
     53 H           4.7949   -4.0031    2.4805 H       1  LIG11       0.0621
     54 H           0.6514   -5.6279    6.3214 H       1  LIG11       0.0624
     55 H           0.6994   -4.1765    8.3196 H       1  LIG11       0.0618
     56 H           2.2224   -2.2173    8.4045 H       1  LIG11       0.0618
     57 H           3.7200   -1.7326    6.4985 H       1  LIG11       0.0624
     58 H           0.8790   -5.2116   -1.3121 H       1  LIG11       0.0332
     59 H          -0.3510   -4.1031   -0.6873 H       1  LIG11       0.0332
     60 H          -1.9738   -4.7611    1.0150 H       1  LIG11       0.0620
     61 H          -3.3243   -6.6198    1.9235 H       1  LIG11       0.0618
     62 H          -2.5659   -8.9673    1.6383 H       1  LIG11       0.0618
     63 H          -0.4548   -9.4445    0.4208 H       1  LIG11       0.0618
     64 H           0.9086   -7.5854   -0.4865 H       1  LIG11       0.0620
     65 H           4.5073   -2.9680    0.5499 H       1  LIG11       0.0332
     66 H           4.4407   -1.3342   -0.1099 H       1  LIG11       0.0332
     67 H           6.0014   -0.6653   -1.9262 H       1  LIG11       0.0620
     68 H           8.2750   -0.9453   -2.8572 H       1  LIG11       0.0618
     69 H           9.5411   -3.0425   -2.4475 H       1  LIG11       0.0618
     70 H           8.5253   -4.8525   -1.0843 H       1  LIG11       0.0618
     71 H           6.2492   -4.5831   -0.1561 H       1  LIG11       0.0620
     72 H           1.3385   -5.1430   -3.6697 H       1  LIG11       0.0639
     73 H           1.3292   -2.5039   -7.0613 H       1  LIG11       0.0636
     74 H           3.6859   -1.9194   -6.6049 H       1  LIG11       0.0618
     75 H           4.8526   -2.8727   -4.6479 H       1  LIG11       0.0621
     76 H           0.3795   -1.2280    1.0254 H       1  LIG11       0.2100
     77 H           1.2229   -0.4584   -0.9938 H       1  LIG11       0.2100
     78 N          -0.1645   -4.0847   -5.5613 N.pl3   1  LIG11      -0.3580
     79 H          -0.6405   -4.8308   -5.0330 H       1  LIG11       0.1423
     80 H          -0.7080   -3.5384   -6.2471 H       1  LIG11       0.1423
@<TRIPOS>BOND
     1    73    35    1
     2    74    36    1
     3    80    78    1
     4    35    36   ar
     5    35    34   ar
     6    36    37   ar
     7    78    34    1
     8    78    79    1
     9    34    33   ar
    10    37    75    1
    11    37    32   ar
    12    33    32   ar
    13    33    72    1
    14    32     7    1
    15    46     7    1
    16    47     7    1
    17     7    43    1
    18    68    28    1
    19    69    29    1
    20    28    29   ar
    21    28    27   ar
    22    45     6    1
    23    29    30   ar
    24    67    27    1
    25    27    26   ar
    26    44     5    1
    27    43     6    1
    28    43     1   am
    29     6     5    1
    30     6    25    1
    31    58    18    1
    32    30    70    1
    33    30    31   ar
    34    50    77    1
    35    50     5    1
    36    26    31   ar
    37    26    25    1
    38     5     4    1
    39    31    71    1
    40    59    18    1
    41    48     1    2
    42     1    42   am
    43    64    24    1
    44    18    19    1
    45    18     3    1
    46    25    66    1
    47    25    65    1
    48    24    19   ar
    49    24    23   ar
    50    19    20   ar
    51    63    23    1
    52     4     3    1
    53     4    49    1
    54     4    41    1
    55    23    22   ar
    56    42     3    1
    57    42     2    1
    58     3    40    1
    59    49    76    1
    60    20    60    1
    61    20    21   ar
    62    22    21   ar
    63    22    62    1
    64    21    61    1
    65    38     2    1
    66     2    39    1
    67     2     8    1
    68    53    13    1
    69     8    13   ar
    70     8     9   ar
    71    13    12   ar
    72    51     9    1
    73     9    10   ar
    74    12    52    1
    75    12    11   ar
    76    10    11   ar
    77    10    14   ar
    78    11    17   ar
    79    54    14    1
    80    14    15   ar
    81    17    57    1
    82    17    16   ar
    83    15    16   ar
    84    15    55    1
    85    16    56    1
