@<TRIPOS>MOLECULE
Mol_21
 72 76 0 0 0
SMALL
GASTEIGER
Energy = 0

@<TRIPOS>ATOM
      1 C           2.9862   -4.8649    0.1446 C.2     1  LIG11       0.3060
      2 C           2.4269   -5.3770    2.4680 C.3     1  LIG11       0.0416
      3 C           0.9136   -3.9036    1.0674 C.3     1  LIG11       0.0601
      4 C           1.0595   -2.3833    0.8303 C.3     1  LIG11       0.1016
      5 C           1.5578   -2.0636   -0.6042 C.3     1  LIG11       0.1016
      6 C           2.9812   -2.6154   -0.8678 C.3     1  LIG11       0.0601
      7 C           3.6551   -4.6875   -2.1814 C.3     1  LIG11       0.0416
      8 C           2.6158   -4.3994    3.6420 C.ar    1  LIG11      -0.0300
      9 C           3.8380   -3.7402    3.8218 C.ar    1  LIG11      -0.0571
     10 C           4.0443   -2.9106    4.9294 C.ar    1  LIG11      -0.0615
     11 C           3.0364   -2.7548    5.8841 C.ar    1  LIG11      -0.0617
     12 C           1.8020   -3.3818    5.6942 C.ar    1  LIG11      -0.0615
     13 C           1.5824   -4.1670    4.5589 C.ar    1  LIG11      -0.0571
     14 H           3.3243   -6.0152    2.4537 H       1  LIG11       0.0514
     15 H           1.5766   -6.0483    2.6676 H       1  LIG11       0.0514
     16 H           0.3734   -3.9488    2.0269 H       1  LIG11       0.0531
     17 H           1.7604   -2.0007    1.5906 H       1  LIG11       0.0638
     18 C          -0.0601   -4.5922    0.0687 C.3     1  LIG11      -0.0064
     19 C          -0.5857   -5.9508    0.5598 C.ar    1  LIG11      -0.0455
     20 C          -0.0513   -7.1500    0.0730 C.ar    1  LIG11      -0.0585
     21 C          -0.5632   -8.3787    0.5020 C.ar    1  LIG11      -0.0615
     22 C          -1.6020   -8.4178    1.4357 C.ar    1  LIG11      -0.0617
     23 C          -2.1355   -7.2245    1.9303 C.ar    1  LIG11      -0.0615
     24 C          -1.6294   -5.9974    1.4918 C.ar    1  LIG11      -0.0585
     25 C           4.0614   -2.0019    0.0731 C.3     1  LIG11      -0.0064
     26 C           5.5017   -2.2587   -0.4064 C.ar    1  LIG11      -0.0455
     27 C           6.2045   -3.3786    0.0553 C.ar    1  LIG11      -0.0585
     28 C           7.5321   -3.5931   -0.3234 C.ar    1  LIG11      -0.0615
     29 C           8.1674   -2.6970   -1.1880 C.ar    1  LIG11      -0.0617
     30 C           7.4675   -1.5893   -1.6719 C.ar    1  LIG11      -0.0615
     31 C           6.1390   -1.3750   -1.2863 C.ar    1  LIG11      -0.0585
     32 C           2.9727   -4.1711   -3.4627 C.ar    1  LIG11      -0.0300
     33 C           1.6310   -4.4741   -3.7252 C.ar    1  LIG11      -0.0571
     34 C           0.9999   -4.0056   -4.8811 C.ar    1  LIG11      -0.0615
     35 C           1.7300   -3.2824   -5.8271 C.ar    1  LIG11      -0.0617
     36 C           3.0731   -2.9853   -5.5822 C.ar    1  LIG11      -0.0615
     37 C           3.6810   -3.4012   -4.3933 C.ar    1  LIG11      -0.0571
     38 H           0.8887   -2.5050   -1.3619 H       1  LIG11       0.0638
     39 H           3.2373   -2.1857   -1.8515 H       1  LIG11       0.0531
     40 H           3.5216   -5.7813   -2.2090 H       1  LIG11       0.0514
     41 H           4.7379   -4.4897   -2.2062 H       1  LIG11       0.0514
     42 N           2.1698   -4.6459    1.2164 N.am    1  LIG11      -0.2752
     43 N           3.1003   -4.0766   -0.9633 N.am    1  LIG11      -0.2752
     44 H           4.6392   -3.8749    3.1030 H       1  LIG11       0.0621
     45 H           4.9889   -2.3888    5.0524 H       1  LIG11       0.0618
     46 H           3.2098   -2.1502    6.7698 H       1  LIG11       0.0618
     47 H           1.0139   -3.2601    6.4313 H       1  LIG11       0.0618
     48 O           3.6827   -5.8662    0.1672 O.2     1  LIG11      -0.2524
     49 O          -0.2310   -1.7898    1.0847 O.3     1  LIG11      -0.3873
     50 O           1.5854   -0.6400   -0.8315 O.3     1  LIG11      -0.3873
     51 H           0.6000   -4.5992    4.4011 H       1  LIG11       0.0621
     52 H           0.4531   -4.7478   -0.8823 H       1  LIG11       0.0332
     53 H          -0.9345   -3.9504   -0.1245 H       1  LIG11       0.0332
     54 H           0.7624   -7.1368   -0.6456 H       1  LIG11       0.0620
     55 H          -0.1545   -9.3049    0.1088 H       1  LIG11       0.0618
     56 H          -1.9939   -9.3718    1.7758 H       1  LIG11       0.0618
     57 H          -2.9447   -7.2519    2.6539 H       1  LIG11       0.0618
     58 H          -2.0565   -5.0768    1.8767 H       1  LIG11       0.0620
     59 H           3.9694   -2.4153    1.0858 H       1  LIG11       0.0332
     60 H           3.9194   -0.9117    0.1480 H       1  LIG11       0.0332
     61 H           5.7224   -4.0896    0.7172 H       1  LIG11       0.0620
     62 H           8.0717   -4.4558    0.0553 H       1  LIG11       0.0618
     63 H           9.2002   -2.8628   -1.4808 H       1  LIG11       0.0618
     64 H           7.9591   -0.8942   -2.3465 H       1  LIG11       0.0618
     65 H           5.6087   -0.5108   -1.6737 H       1  LIG11       0.0620
     66 H           1.0665   -5.0867   -3.0368 H       1  LIG11       0.0621
     67 H          -0.0545   -4.2071   -5.0477 H       1  LIG11       0.0618
     68 H           1.2558   -2.9551   -6.7477 H       1  LIG11       0.0618
     69 H           3.6457   -2.4304   -6.3189 H       1  LIG11       0.0618
     70 H           4.7118   -3.1222   -4.2011 H       1  LIG11       0.0621
     71 H          -0.2062   -0.8433    1.1843 H       1  LIG11       0.2100
     72 H           0.7202   -0.2427   -0.8555 H       1  LIG11       0.2100
@<TRIPOS>BOND
     1    68    35    1
     2    69    36    1
     3    35    36   ar
     4    35    34   ar
     5    36    37   ar
     6    67    34    1
     7    34    33   ar
     8    37    70    1
     9    37    32   ar
    10    33    32   ar
    11    33    66    1
    12    32     7    1
    13    64    30    1
    14    40     7    1
    15    41     7    1
    16     7    43    1
    17    39     6    1
    18    65    31    1
    19    30    31   ar
    20    30    29   ar
    21    63    29    1
    22    38     5    1
    23    31    26   ar
    24    29    28   ar
    25    43     6    1
    26    43     1   am
    27    52    18    1
    28     6     5    1
    29     6    25    1
    30    72    50    1
    31    50     5    1
    32    54    20    1
    33     5     4    1
    34    26    27   ar
    35    26    25    1
    36    28    62    1
    37    28    27   ar
    38    53    18    1
    39    27    61    1
    40    18    19    1
    41    18     3    1
    42    20    21   ar
    43    20    19   ar
    44    25    60    1
    45    25    59    1
    46    55    21    1
    47     1    48    2
    48     1    42   am
    49    21    22   ar
    50    19    24   ar
    51     4     3    1
    52     4    49    1
    53     4    17    1
    54     3    42    1
    55     3    16    1
    56    49    71    1
    57    42     2    1
    58    22    56    1
    59    22    23   ar
    60    24    58    1
    61    24    23   ar
    62    23    57    1
    63    14     2    1
    64     2    15    1
    65     2     8    1
    66    44     9    1
    67     8     9   ar
    68     8    13   ar
    69     9    10   ar
    70    51    13    1
    71    13    12   ar
    72    10    45    1
    73    10    11   ar
    74    12    11   ar
    75    12    47    1
    76    11    46    1
