@<TRIPOS>MOLECULE
Mol_23
 70 74 0 0 0
SMALL
GASTEIGER
Energy = 0

@<TRIPOS>ATOM
      1 C           2.8543   -4.8406    0.0921 C.2     1  LIG11       0.3060
      2 C           2.2739   -5.3175    2.4151 C.3     1  LIG11       0.0430
      3 C           0.8406   -3.7609    1.0147 C.3     1  LIG11       0.0602
      4 C           1.0538   -2.2498    0.7664 C.3     1  LIG11       0.1016
      5 C           1.5821   -1.9679   -0.6646 C.3     1  LIG11       0.1016
      6 C           2.9813   -2.5896   -0.8998 C.3     1  LIG11       0.0602
      7 C           3.5695   -4.6771   -2.2296 C.3     1  LIG11       0.0430
      8 C           2.5072   -4.3563    3.5932 C.ar    1  LIG11      -0.0120
      9 C           3.7638   -3.7757    3.8017 C.ar    1  LIG11      -0.0542
     10 C           3.9753   -2.9553    4.9140 C.ar    1  LIG11      -0.0433
     11 C           2.9249   -2.7320    5.8078 C.ar    1  LIG11       0.0276
     12 N           1.7106   -3.2667    5.5687 N.ar    1  LIG11      -0.2629
     13 C           1.4807   -4.0504    4.4951 C.ar    1  LIG11       0.0322
     14 H           3.1432   -5.9936    2.4019 H       1  LIG11       0.0515
     15 H           1.3939   -5.9506    2.6100 H       1  LIG11       0.0515
     16 H           0.2966   -3.7740    1.9734 H       1  LIG11       0.0531
     17 H           1.7646   -1.8886    1.5286 H       1  LIG11       0.0638
     18 C          -0.1613   -4.4141    0.0203 C.3     1  LIG11      -0.0064
     19 C          -0.7404   -5.7406    0.5395 C.ar    1  LIG11      -0.0455
     20 C          -0.1760   -6.9678    0.1703 C.ar    1  LIG11      -0.0585
     21 C          -0.7308   -8.1677    0.6270 C.ar    1  LIG11      -0.0615
     22 C          -1.8458   -8.1496    1.4693 C.ar    1  LIG11      -0.0617
     23 C          -2.4111   -6.9283    1.8449 C.ar    1  LIG11      -0.0615
     24 C          -1.8593   -5.7304    1.3810 C.ar    1  LIG11      -0.0585
     25 C           4.0651   -2.0591    0.0877 C.3     1  LIG11      -0.0064
     26 C           5.4994   -2.2685   -0.4323 C.ar    1  LIG11      -0.0455
     27 C           6.1572   -3.4873   -0.2241 C.ar    1  LIG11      -0.0585
     28 C           7.4704   -3.6720   -0.6659 C.ar    1  LIG11      -0.0615
     29 C           8.1423   -2.6360   -1.3214 C.ar    1  LIG11      -0.0617
     30 C           7.4914   -1.4201   -1.5409 C.ar    1  LIG11      -0.0615
     31 C           6.1739   -1.2417   -1.1047 C.ar    1  LIG11      -0.0585
     32 C           2.7786   -4.2913   -3.4924 C.ar    1  LIG11      -0.0120
     33 C           1.4735   -4.7560   -3.6914 C.ar    1  LIG11      -0.0542
     34 C           0.7687   -4.3971   -4.8435 C.ar    1  LIG11      -0.0433
     35 C           1.4078   -3.6289   -5.8193 C.ar    1  LIG11       0.0276
     36 N           2.6676   -3.1933   -5.6156 N.ar    1  LIG11      -0.2629
     37 C           3.3464   -3.4855   -4.4866 C.ar    1  LIG11       0.0322
     38 H           0.9041   -2.3871   -1.4268 H       1  LIG11       0.0638
     39 H           3.2805   -2.1650   -1.8744 H       1  LIG11       0.0531
     40 H           3.5469   -5.7783   -2.2133 H       1  LIG11       0.0515
     41 H           4.6244   -4.3821   -2.3356 H       1  LIG11       0.0515
     42 N           2.0553   -4.5705    1.1651 N.am    1  LIG11      -0.2752
     43 N           3.0286   -4.0536   -1.0094 N.am    1  LIG11      -0.2752
     44 H           4.5780   -3.9629    3.1089 H       1  LIG11       0.0622
     45 H           4.9444   -2.4971    5.0867 H       1  LIG11       0.0633
     46 H           3.0763   -2.1294    6.6978 H       1  LIG11       0.0829
     47 H           0.4802   -4.4414    4.3495 H       1  LIG11       0.0833
     48 O           3.4763   -5.8894    0.1157 O.2     1  LIG11      -0.2524
     49 O          -0.2140   -1.6000    0.9975 O.3     1  LIG11      -0.3873
     50 O           1.6813   -0.5495   -0.9070 O.3     1  LIG11      -0.3873
     51 H           0.3427   -4.6050   -0.9301 H       1  LIG11       0.0332
     52 H          -1.0039   -3.7347   -0.1847 H       1  LIG11       0.0332
     53 H           0.6953   -6.9973   -0.4765 H       1  LIG11       0.0620
     54 H          -0.2964   -9.1167    0.3269 H       1  LIG11       0.0618
     55 H          -2.2721   -9.0809    1.8308 H       1  LIG11       0.0618
     56 H          -3.2800   -6.9108    2.4962 H       1  LIG11       0.0618
     57 H          -2.3098   -4.7882    1.6766 H       1  LIG11       0.0620
     58 H           3.9825   -2.5629    1.0603 H       1  LIG11       0.0332
     59 H           3.9182   -0.9816    0.2641 H       1  LIG11       0.0332
     60 H           5.6500   -4.2994    0.2854 H       1  LIG11       0.0620
     61 H           7.9718   -4.6206   -0.4993 H       1  LIG11       0.0618
     62 H           9.1655   -2.7762   -1.6580 H       1  LIG11       0.0618
     63 H           8.0110   -0.6131   -2.0496 H       1  LIG11       0.0618
     64 H           5.6812   -0.2928   -1.2913 H       1  LIG11       0.0620
     65 H           1.0042   -5.4057   -2.9643 H       1  LIG11       0.0622
     66 H          -0.2606   -4.7142   -4.9834 H       1  LIG11       0.0633
     67 H           0.8980   -3.3798   -6.7444 H       1  LIG11       0.0829
     68 H           4.3471   -3.0854   -4.3687 H       1  LIG11       0.0833
     69 H          -0.1535   -0.6532    1.0770 H       1  LIG11       0.2100
     70 H           0.8370   -0.1116   -0.9585 H       1  LIG11       0.2100
@<TRIPOS>BOND
     1    67    35    1
     2    35    36   ar
     3    35    34   ar
     4    36    37   ar
     5    66    34    1
     6    34    33   ar
     7    37    68    1
     8    37    32   ar
     9    33    32   ar
    10    33    65    1
    11    32     7    1
    12    41     7    1
    13     7    40    1
    14     7    43    1
    15    63    30    1
    16    39     6    1
    17    62    29    1
    18    30    29   ar
    19    30    31   ar
    20    38     5    1
    21    29    28   ar
    22    64    31    1
    23    31    26   ar
    24    43     6    1
    25    43     1   am
    26    70    50    1
    27    51    18    1
    28    50     5    1
    29     6     5    1
    30     6    25    1
    31    28    61    1
    32    28    27   ar
    33     5     4    1
    34    53    20    1
    35    26    27   ar
    36    26    25    1
    37    27    60    1
    38    52    18    1
    39    18    19    1
    40    18     3    1
    41    25    59    1
    42    25    58    1
    43     1    48    2
    44     1    42   am
    45    20    19   ar
    46    20    21   ar
    47    54    21    1
    48    19    24   ar
    49    21    22   ar
    50     4    49    1
    51     4     3    1
    52     4    17    1
    53    49    69    1
    54     3    42    1
    55     3    16    1
    56    42     2    1
    57    24    57    1
    58    24    23   ar
    59    22    55    1
    60    22    23   ar
    61    23    56    1
    62    14     2    1
    63     2    15    1
    64     2     8    1
    65    44     9    1
    66     8     9   ar
    67     8    13   ar
    68     9    10   ar
    69    47    13    1
    70    13    12   ar
    71    10    45    1
    72    10    11   ar
    73    12    11   ar
    74    11    46    1
