@<TRIPOS>MOLECULE
Mol_104
 89 94 0 0 0
SMALL
GASTEIGER
Energy = 0

@<TRIPOS>ATOM
      1 C           2.8826   -4.8523    0.1400 C.2     1  LIG11       0.3060
      2 C           2.3436   -5.3837    2.4533 C.3     1  LIG11       0.0416
      3 C           0.9144   -3.7506    1.1277 C.3     1  LIG11       0.0601
      4 C           1.1079   -2.2456    0.8229 C.3     1  LIG11       0.1016
      5 C           1.6079   -1.9955   -0.6259 C.3     1  LIG11       0.1016
      6 C           3.0151   -2.5956   -0.8645 C.3     1  LIG11       0.0601
      7 C           3.6350   -4.6918   -2.1628 C.3     1  LIG11       0.0417
      8 C           2.4276   -4.5724    3.7612 C.ar    1  LIG11      -0.0293
      9 C           1.5960   -4.8646    4.8479 C.ar    1  LIG11      -0.0449
     10 C           1.7208   -4.1575    6.0510 C.ar    1  LIG11       0.0374
     11 C           2.6009   -3.0760    6.1426 C.ar    1  LIG11      -0.0496
     12 C           3.4216   -2.7619    5.0592 C.ar    1  LIG11      -0.0607
     13 C           3.3644   -3.5419    3.9013 C.ar    1  LIG11      -0.0570
     14 C           0.9290   -4.5550    7.2753 C.2     1  LIG11       0.2493
     15 C           0.1734   -6.3066    8.7802 C.ar    1  LIG11       0.1251
     16 N          -0.6082   -5.4459    9.4639 N.ar    1  LIG11      -0.2401
     17 C          -0.1304   -4.4251    0.1891 C.3     1  LIG11      -0.0064
     18 C          -0.5835   -5.7969    0.7120 C.ar    1  LIG11      -0.0455
     19 C          -1.5870   -5.8843    1.6842 C.ar    1  LIG11      -0.0585
     20 C          -2.0165   -7.1311    2.1490 C.ar    1  LIG11      -0.0615
     21 C          -1.4445   -8.3014    1.6427 C.ar    1  LIG11      -0.0617
     22 C          -0.4417   -8.2207    0.6729 C.ar    1  LIG11      -0.0615
     23 C          -0.0091   -6.9729    0.2146 C.ar    1  LIG11      -0.0585
     24 C           4.0852   -2.0375    0.1155 C.3     1  LIG11      -0.0064
     25 C           5.5303   -2.2151   -0.3754 C.ar    1  LIG11      -0.0455
     26 C           6.2703   -3.3566   -0.0428 C.ar    1  LIG11      -0.0585
     27 C           7.5895   -3.4969   -0.4852 C.ar    1  LIG11      -0.0615
     28 C           8.1771   -2.4979   -1.2664 C.ar    1  LIG11      -0.0617
     29 C           7.4458   -1.3535   -1.5951 C.ar    1  LIG11      -0.0615
     30 C           6.1281   -1.2144   -1.1500 C.ar    1  LIG11      -0.0585
     31 C           2.9426   -4.1988   -3.4434 C.ar    1  LIG11      -0.0266
     32 C           1.6134   -4.5465   -3.7122 C.ar    1  LIG11      -0.0568
     33 C           0.9771   -4.0827   -4.8683 C.ar    1  LIG11      -0.0580
     34 C           1.6775   -3.2889   -5.7816 C.ar    1  LIG11      -0.0199
     35 C           3.0119   -2.9595   -5.5320 C.ar    1  LIG11       0.1204
     36 C           3.6350   -3.4041   -4.3636 C.ar    1  LIG11      -0.0153
     37 H          -0.0608   -4.3404   -5.0591 H       1  LIG11       0.0619
     38 H          -1.8832   -5.0915   11.0989 H       1  LIG11       0.0830
     39 O           3.7276   -2.1826   -6.4427 O.3     1  LIG11      -0.4951
     40 C           4.5922   -2.9349   -7.3099 C.3     1  LIG11       0.0788
     41 N           2.1252   -4.5721    1.2408 N.am    1  LIG11      -0.2752
     42 N           3.0753   -4.0614   -0.9565 N.am    1  LIG11      -0.2752
     43 N           0.8516   -5.8604    7.6152 N.am    1  LIG11      -0.2664
     44 C          -1.2690   -5.8188   10.5785 C.ar    1  LIG11       0.0297
     45 H           3.2930   -5.9414    2.4453 H       1  LIG11       0.0514
     46 H           1.5352   -6.1287    2.5093 H       1  LIG11       0.0514
     47 O           3.4502   -5.9322    0.1344 O.2     1  LIG11      -0.2524
     48 O          -0.1578   -1.5947    1.0617 O.3     1  LIG11      -0.3873
     49 O           1.6714   -0.5823   -0.9065 O.3     1  LIG11      -0.3873
     50 O           0.4152   -3.6545    7.9185 O.2     1  LIG11      -0.2698
     51 H           0.4255   -3.7433    2.1180 H       1  LIG11       0.0531
     52 C          -1.1635   -7.1279   11.0568 C.ar    1  LIG11      -0.0435
     53 H           1.8254   -1.8523    1.5619 H       1  LIG11       0.0638
     54 C          -0.3610   -8.0422   10.3701 C.ar    1  LIG11      -0.0571
     55 C           0.3145   -7.6268    9.2201 C.ar    1  LIG11      -0.0215
     56 H           0.9334   -2.4456   -1.3726 H       1  LIG11       0.0638
     57 H           3.3148   -2.1695   -1.8372 H       1  LIG11       0.0531
     58 H           3.5184   -5.7871   -2.1904 H       1  LIG11       0.0514
     59 H           4.7149   -4.4797   -2.1923 H       1  LIG11       0.0514
     60 H           0.8507   -5.6483    4.7657 H       1  LIG11       0.0628
     61 H           2.6575   -2.4924    7.0570 H       1  LIG11       0.0625
     62 H           4.1081   -1.9223    5.1228 H       1  LIG11       0.0618
     63 H           4.0742   -3.3469    3.1152 H       1  LIG11       0.0621
     64 H           0.2877   -4.5711   -0.8139 H       1  LIG11       0.0332
     65 H          -1.0239   -3.7887    0.0843 H       1  LIG11       0.0332
     66 H          -2.0414   -4.9822    2.0816 H       1  LIG11       0.0620
     67 H          -2.7960   -7.1920    2.9027 H       1  LIG11       0.0618
     68 H          -1.7784   -9.2706    2.0011 H       1  LIG11       0.0618
     69 H           0.0013   -9.1284    0.2744 H       1  LIG11       0.0618
     70 H           0.7767   -6.9259   -0.5330 H       1  LIG11       0.0620
     71 H           3.9969   -2.5652    1.0628 H       1  LIG11       0.0332
     72 H           3.9158   -0.9677    0.3165 H       1  LIG11       0.0332
     73 H           5.8264   -4.1402    0.5637 H       1  LIG11       0.0620
     74 H           8.1604   -4.3823   -0.2216 H       1  LIG11       0.0618
     75 H           9.1988   -2.6095   -1.6169 H       1  LIG11       0.0618
     76 H           7.9015   -0.5718   -2.1954 H       1  LIG11       0.0618
     77 H           5.5714   -0.3188   -1.4069 H       1  LIG11       0.0620
     78 H           1.0698   -5.1853   -3.0250 H       1  LIG11       0.0621
     79 H           1.1914   -2.9281   -6.6823 H       1  LIG11       0.0654
     80 H           4.6659   -3.1223   -4.1819 H       1  LIG11       0.0657
     81 H           5.2780   -3.5834   -6.7419 H       1  LIG11       0.0660
     82 H           5.1914   -2.2225   -7.8959 H       1  LIG11       0.0660
     83 H           3.9977   -3.5518   -8.0011 H       1  LIG11       0.0660
     84 H           1.3356   -6.5251    7.0503 H       1  LIG11       0.1566
     85 H          -0.1003   -0.6456    1.1178 H       1  LIG11       0.2100
     86 H           0.8150   -0.1683   -0.9575 H       1  LIG11       0.2100
     87 H          -1.6987   -7.4301   11.9511 H       1  LIG11       0.0633
     88 H           0.9440   -8.3246    8.6782 H       1  LIG11       0.0652
     89 H          -0.2621   -9.0632   10.7251 H       1  LIG11       0.0619
@<TRIPOS>BOND
     1    83    40    1
     2    82    40    1
     3    40    81    1
     4    40    39    1
     5    79    34    1
     6    39    35    1
     7    34    35   ar
     8    34    33   ar
     9    35    36   ar
    10    37    33    1
    11    33    32   ar
    12    36    80    1
    13    36    31   ar
    14    32    31   ar
    15    32    78    1
    16    31     7    1
    17    76    29    1
    18    59     7    1
    19    58     7    1
    20     7    42    1
    21    57     6    1
    22    75    28    1
    23    29    28   ar
    24    29    30   ar
    25    77    30    1
    26    56     5    1
    27    28    27   ar
    28    30    25   ar
    29    86    49    1
    30    42     6    1
    31    42     1   am
    32    49     5    1
    33     6     5    1
    34     6    24    1
    35    64    17    1
    36     5     4    1
    37    70    23    1
    38    27    74    1
    39    27    26   ar
    40    25    26   ar
    41    25    24    1
    42    26    73    1
    43    65    17    1
    44    24    72    1
    45    24    71    1
    46    47     1    2
    47     1    41   am
    48    17    18    1
    49    17     3    1
    50    23    22   ar
    51    23    18   ar
    52    69    22    1
    53    22    21   ar
    54    18    19   ar
    55     4    48    1
    56     4     3    1
    57     4    53    1
    58    48    85    1
    59     3    41    1
    60     3    51    1
    61    41     2    1
    62    21    68    1
    63    21    20   ar
    64    19    66    1
    65    19    20   ar
    66    20    67    1
    67    45     2    1
    68     2    46    1
    69     2     8    1
    70    63    13    1
    71     8    13   ar
    72     8     9   ar
    73    13    12   ar
    74    60     9    1
    75     9    10   ar
    76    12    62    1
    77    12    11   ar
    78    10    11   ar
    79    10    14    1
    80    11    61    1
    81    84    43    1
    82    14    43   am
    83    14    50    2
    84    43    15    1
    85    88    55    1
    86    15    55   ar
    87    15    16   ar
    88    55    54   ar
    89    16    44   ar
    90    54    89    1
    91    54    52   ar
    92    44    52   ar
    93    44    38    1
    94    52    87    1
