@<TRIPOS>MOLECULE
Mol_46
 78 82 0 0 0
SMALL
GASTEIGER
Energy = 0

@<TRIPOS>ATOM
      1 C           2.6816   -4.5354    0.1199 C.2     1  LIG11       0.3054
      2 C           2.0519   -4.9665    2.4439 C.3     1  LIG11       0.0194
      3 C           0.6492   -3.4527    0.9740 C.3     1  LIG11       0.0598
      4 C           0.8721   -1.9386    0.7644 C.3     1  LIG11       0.1016
      5 C           1.4377   -1.6456   -0.6458 C.3     1  LIG11       0.1016
      6 C           2.8297   -2.2928   -0.8907 C.3     1  LIG11       0.0598
      7 C           3.5053   -4.4054   -2.1742 C.3     1  LIG11       0.0194
      8 C           2.1416   -4.0488    3.7028 C.3     1  LIG11      -0.0251
      9 C           3.4247   -3.1806    3.7623 C.3     1  LIG11      -0.0488
     10 C           1.3393   -4.2581   -3.6259 C.3     1  LIG11      -0.0488
     11 C           1.0119   -4.3860   -5.1387 C.3     1  LIG11      -0.0527
     12 C           3.3481   -4.9477   -4.7132 C.3     1  LIG11      -0.0488
     13 C           2.3807   -4.5501   -5.8518 C.3     1  LIG11      -0.0527
     14 C           2.1408   -4.8680    5.0279 C.3     1  LIG11      -0.0488
     15 C           3.6107   -2.9171    5.2702 C.3     1  LIG11      -0.0527
     16 C           3.2943   -4.2935    5.8923 C.3     1  LIG11      -0.0527
     17 H           2.9589   -5.5915    2.4631 H       1  LIG11       0.0468
     18 C          -0.2994   -4.1318   -0.0548 C.3     1  LIG11      -0.0064
     19 C          -0.8791   -5.4541    0.4788 C.ar    1  LIG11      -0.0455
     20 C          -0.3688   -6.6882    0.0583 C.ar    1  LIG11      -0.0585
     21 C          -0.9284   -7.8823    0.5248 C.ar    1  LIG11      -0.0615
     22 C          -1.9883   -7.8524    1.4348 C.ar    1  LIG11      -0.0617
     23 C          -2.4930   -6.6242    1.8703 C.ar    1  LIG11      -0.0615
     24 C          -1.9416   -5.4324    1.3910 C.ar    1  LIG11      -0.0585
     25 C           3.9197   -1.7583    0.0831 C.3     1  LIG11      -0.0064
     26 C           5.3610   -2.0103   -0.3928 C.ar    1  LIG11      -0.0455
     27 C           5.9993   -3.2265   -0.1157 C.ar    1  LIG11      -0.0585
     28 C           7.3150   -3.4487   -0.5307 C.ar    1  LIG11      -0.0615
     29 C           8.0089   -2.4524   -1.2241 C.ar    1  LIG11      -0.0617
     30 C           7.3811   -1.2362   -1.5010 C.ar    1  LIG11      -0.0615
     31 C           6.0612   -1.0193   -1.0903 C.ar    1  LIG11      -0.0585
     32 C           2.8690   -4.0430   -3.5504 C.3     1  LIG11      -0.0251
     33 H           1.1933   -5.6475    2.5602 H       1  LIG11       0.0468
     34 H           0.0447   -3.4846    1.8935 H       1  LIG11       0.0530
     35 H           1.5714   -1.5888    1.5408 H       1  LIG11       0.0638
     36 H           0.7339   -2.0344   -1.3925 H       1  LIG11       0.0638
     37 H           3.1368   -1.8580   -1.8534 H       1  LIG11       0.0530
     38 H           3.4512   -5.5040   -2.1185 H       1  LIG11       0.0468
     39 H           4.5739   -4.1432   -2.2160 H       1  LIG11       0.0468
     40 H           1.2949   -3.3453    3.7562 H       1  LIG11       0.0316
     41 H           3.3248   -2.2179    3.2414 H       1  LIG11       0.0268
     42 N           1.8688   -4.2373    1.1770 N.am    1  LIG11      -0.2793
     43 N           2.8959   -3.7608   -0.9888 N.am    1  LIG11      -0.2793
     44 H           4.2932   -3.7288    3.3612 H       1  LIG11       0.0268
     45 H           0.7760   -3.4307   -3.1787 H       1  LIG11       0.0268
     46 H           1.0832   -5.1941   -3.1018 H       1  LIG11       0.0268
     47 H           0.4806   -3.4948   -5.5149 H       1  LIG11       0.0265
     48 O           3.2729   -5.6012    0.1732 O.2     1  LIG11      -0.2524
     49 O          -0.4017   -1.2926    0.9772 O.3     1  LIG11      -0.3873
     50 O           1.5459   -0.2258   -0.8757 O.3     1  LIG11      -0.3873
     51 H           0.3700   -5.2662   -5.3102 H       1  LIG11       0.0265
     52 H           3.1899   -6.0125   -4.4715 H       1  LIG11       0.0268
     53 H           4.4077   -4.7942   -4.9736 H       1  LIG11       0.0268
     54 H           2.7058   -3.5832   -6.2737 H       1  LIG11       0.0265
     55 H           2.3537   -5.2932   -6.6655 H       1  LIG11       0.0265
     56 H           2.2995   -5.9457    4.8584 H       1  LIG11       0.0268
     57 H           1.1728   -4.7530    5.5457 H       1  LIG11       0.0268
     58 H           2.8739   -2.1706    5.6120 H       1  LIG11       0.0265
     59 H           4.6248   -2.5572    5.5123 H       1  LIG11       0.0265
     60 H           3.0317   -4.2154    6.9602 H       1  LIG11       0.0265
     61 H           4.1866   -4.9347    5.7940 H       1  LIG11       0.0265
     62 H           0.2411   -4.3354   -0.9842 H       1  LIG11       0.0332
     63 H          -1.1447   -3.4677   -0.2954 H       1  LIG11       0.0332
     64 H           0.4649   -6.7288   -0.6355 H       1  LIG11       0.0620
     65 H          -0.5396   -8.8357    0.1796 H       1  LIG11       0.0618
     66 H          -2.4187   -8.7794    1.8022 H       1  LIG11       0.0618
     67 H          -3.3146   -6.5974    2.5801 H       1  LIG11       0.0618
     68 H          -2.3476   -4.4851    1.7317 H       1  LIG11       0.0620
     69 H           3.8168   -2.2602    1.0467 H       1  LIG11       0.0332
     70 H           3.7898   -0.6771    0.2509 H       1  LIG11       0.0332
     71 H           5.4750   -4.0071    0.4261 H       1  LIG11       0.0620
     72 H           7.8008   -4.3954   -0.3143 H       1  LIG11       0.0618
     73 H           9.0320   -2.6239   -1.5455 H       1  LIG11       0.0618
     74 H           7.9191   -0.4582   -2.0345 H       1  LIG11       0.0618
     75 H           5.5866   -0.0696   -1.3147 H       1  LIG11       0.0620
     76 H           3.1027   -3.0015   -3.8276 H       1  LIG11       0.0316
     77 H          -0.3442   -0.3502    1.0990 H       1  LIG11       0.2100
     78 H           0.7041    0.2197   -0.9021 H       1  LIG11       0.2100
@<TRIPOS>BOND
     1    55    13    1
     2    54    13    1
     3    13    11    1
     4    13    12    1
     5    47    11    1
     6    51    11    1
     7    11    10    1
     8    53    12    1
     9    12    52    1
    10    12    32    1
    11    76    32    1
    12    10    32    1
    13    10    45    1
    14    10    46    1
    15    32     7    1
    16    39     7    1
    17     7    38    1
    18     7    43    1
    19    74    30    1
    20    37     6    1
    21    73    29    1
    22    30    29   ar
    23    30    31   ar
    24    36     5    1
    25    75    31    1
    26    29    28   ar
    27    31    26   ar
    28    43     6    1
    29    43     1   am
    30    62    18    1
    31    78    50    1
    32     6     5    1
    33     6    25    1
    34    50     5    1
    35     5     4    1
    36    64    20    1
    37    28    72    1
    38    28    27   ar
    39    26    27   ar
    40    26    25    1
    41    63    18    1
    42    27    71    1
    43    18    19    1
    44    18     3    1
    45    20    19   ar
    46    20    21   ar
    47    25    70    1
    48    25    69    1
    49     1    48    2
    50     1    42   am
    51    65    21    1
    52    19    24   ar
    53    21    22   ar
    54     4     3    1
    55     4    49    1
    56     4    35    1
    57     3    42    1
    58     3    34    1
    59    49    77    1
    60    42     2    1
    61    24    68    1
    62    24    23   ar
    63    22    66    1
    64    22    23   ar
    65    23    67    1
    66     2    17    1
    67     2    33    1
    68     2     8    1
    69    41     9    1
    70    44     9    1
    71     8    40    1
    72     8     9    1
    73     8    14    1
    74     9    15    1
    75    56    14    1
    76    14    57    1
    77    14    16    1
    78    15    59    1
    79    15    58    1
    80    15    16    1
    81    61    16    1
    82    16    60    1
