@<TRIPOS>MOLECULE
Mol_36
 80 84 0 0 0
SMALL
GASTEIGER
Energy = 0

@<TRIPOS>ATOM
      1 C           2.8848   -4.8352    0.0411 C.2     1  LIG11       0.3060
      2 C           3.6070   -4.6296   -2.2778 C.3     1  LIG11       0.0417
      3 C           3.0226   -2.5682   -0.9061 C.3     1  LIG11       0.0601
      4 C           1.6210   -1.9509   -0.6759 C.3     1  LIG11       0.1016
      5 C           1.0797   -2.2472    0.7481 C.3     1  LIG11       0.1016
      6 C           0.8896   -3.7618    1.0074 C.3     1  LIG11       0.0601
      7 C           2.3452   -5.3425    2.3654 C.3     1  LIG11       0.0417
      8 C           2.7987   -4.2667   -3.5380 C.ar    1  LIG11      -0.0266
      9 C           1.4871   -4.7319   -3.6977 C.ar    1  LIG11      -0.0568
     10 C           0.7296   -4.3806   -4.8189 C.ar    1  LIG11      -0.0580
     11 C           1.3089   -3.6193   -5.8373 C.ar    1  LIG11      -0.0199
     12 C           2.6311   -3.1898   -5.7117 C.ar    1  LIG11       0.1204
     13 C           3.3628   -3.4925   -4.5588 C.ar    1  LIG11      -0.0153
     14 O           3.2231   -2.4597   -6.7415 O.3     1  LIG11      -0.4951
     15 H           3.6128   -5.7308   -2.2736 H       1  LIG11       0.0514
     16 H           4.6547   -4.3078   -2.3823 H       1  LIG11       0.0514
     17 O           0.8878   -3.2778    6.6486 O.3     1  LIG11      -0.4951
     18 C           4.0888   -2.0609    0.1125 C.3     1  LIG11      -0.0064
     19 C           5.5312   -2.2626   -0.3850 C.ar    1  LIG11      -0.0455
     20 C           6.1624   -1.2734   -1.1499 C.ar    1  LIG11      -0.0585
     21 C           7.4878   -1.4331   -1.5669 C.ar    1  LIG11      -0.0615
     22 C           8.1929   -2.5905   -1.2268 C.ar    1  LIG11      -0.0617
     23 C           7.5654   -3.5879   -0.4756 C.ar    1  LIG11      -0.0615
     24 C           6.2381   -3.4279   -0.0655 C.ar    1  LIG11      -0.0585
     25 C          -0.1156   -4.4339    0.0266 C.3     1  LIG11      -0.0064
     26 C          -0.6442   -5.7871    0.5362 C.ar    1  LIG11      -0.0455
     27 C          -1.7322   -5.8246    1.4168 C.ar    1  LIG11      -0.0585
     28 C          -2.2420   -7.0458    1.8689 C.ar    1  LIG11      -0.0615
     29 C          -1.6648   -8.2451    1.4439 C.ar    1  LIG11      -0.0617
     30 C          -0.5782   -8.2167    0.5654 C.ar    1  LIG11      -0.0615
     31 C          -0.0663   -6.9934    0.1203 C.ar    1  LIG11      -0.0585
     32 C           2.6144   -4.4457    3.5877 C.ar    1  LIG11      -0.0266
     33 C           3.8692   -3.8485    3.7685 C.ar    1  LIG11      -0.0568
     34 C           4.1270   -3.0544    4.8907 C.ar    1  LIG11      -0.0580
     35 C           3.1324   -2.8613    5.8542 C.ar    1  LIG11      -0.0199
     36 C           1.8813   -3.4571    5.6857 C.ar    1  LIG11       0.1204
     37 C           1.6218   -4.2324    4.5514 C.ar    1  LIG11      -0.0153
     38 H           3.3374   -2.1280   -1.8691 H       1  LIG11       0.0531
     39 H           0.9478   -2.3603   -1.4481 H       1  LIG11       0.0638
     40 H           1.7783   -1.8725    1.5146 H       1  LIG11       0.0638
     41 H           0.3652   -3.7793    1.9784 H       1  LIG11       0.0531
     42 N           3.0653   -4.0289   -1.0453 N.am    1  LIG11      -0.2752
     43 N           2.1109   -4.5675    1.1338 N.am    1  LIG11      -0.2752
     44 H           3.2110   -6.0207    2.3183 H       1  LIG11       0.0514
     45 H           1.4663   -5.9802    2.5477 H       1  LIG11       0.0514
     46 H           1.0490   -5.3857   -2.9553 H       1  LIG11       0.0621
     47 H          -0.3045   -4.7024   -4.9041 H       1  LIG11       0.0619
     48 O           3.4756   -5.9021    0.0329 O.2     1  LIG11      -0.2524
     49 O           1.7350   -0.5291   -0.8947 O.3     1  LIG11      -0.3873
     50 O          -0.1970   -1.6097    0.9670 O.3     1  LIG11      -0.3873
     51 H           0.7391   -3.3638   -6.7251 H       1  LIG11       0.0654
     52 H           4.3784   -3.1235   -4.4744 H       1  LIG11       0.0657
     53 H           3.9816   -2.5788    1.0751 H       1  LIG11       0.0332
     54 H           3.9497   -0.9851    0.3046 H       1  LIG11       0.0332
     55 H           5.6271   -0.3695   -1.4229 H       1  LIG11       0.0620
     56 H           7.9718   -0.6580   -2.1540 H       1  LIG11       0.0618
     57 H           9.2241   -2.7140   -1.5451 H       1  LIG11       0.0618
     58 H           8.1114   -4.4880   -0.2097 H       1  LIG11       0.0618
     59 H           5.7599   -4.2161    0.5070 H       1  LIG11       0.0620
     60 H           0.3761   -4.5939   -0.9355 H       1  LIG11       0.0332
     61 H          -0.9824   -3.7796   -0.1574 H       1  LIG11       0.0332
     62 H          -2.1917   -4.9006    1.7525 H       1  LIG11       0.0620
     63 H          -3.0881   -7.0641    2.5496 H       1  LIG11       0.0618
     64 H          -2.0593   -9.1945    1.7946 H       1  LIG11       0.0618
     65 H          -0.1329   -9.1482    0.2285 H       1  LIG11       0.0618
     66 H           0.7835   -6.9892   -0.5549 H       1  LIG11       0.0620
     67 H           4.6568   -4.0061    3.0387 H       1  LIG11       0.0621
     68 H           5.1000   -2.5885    5.0186 H       1  LIG11       0.0619
     69 H           3.3267   -2.2524    6.7316 H       1  LIG11       0.0654
     70 H           0.6375   -4.6708    4.4343 H       1  LIG11       0.0657
     71 H           0.8967   -0.0795   -0.9355 H       1  LIG11       0.2100
     72 H          -0.1470   -0.6627    1.0556 H       1  LIG11       0.2100
     73 C           0.7798   -4.3553    7.5936 C.3     1  LIG11       0.0788
     74 C           3.9134   -3.2767   -7.7010 C.3     1  LIG11       0.0788
     75 H           0.5549   -5.3088    7.0905 H       1  LIG11       0.0660
     76 H          -0.0419   -4.1220    8.2867 H       1  LIG11       0.0660
     77 H           1.7111   -4.4596    8.1719 H       1  LIG11       0.0660
     78 H           4.3189   -2.6203   -8.4848 H       1  LIG11       0.0660
     79 H           3.2264   -4.0003   -8.1676 H       1  LIG11       0.0660
     80 H           4.7471   -3.8189   -7.2278 H       1  LIG11       0.0660
@<TRIPOS>BOND
     1    78    74    1
     2    79    74    1
     3    74    80    1
     4    74    14    1
     5    14    12    1
     6    51    11    1
     7    11    12   ar
     8    11    10   ar
     9    12    13   ar
    10    47    10    1
    11    10     9   ar
    12    13    52    1
    13    13     8   ar
    14     9     8   ar
    15     9    46    1
    16     8     2    1
    17    16     2    1
    18     2    15    1
    19     2    42    1
    20    56    21    1
    21    38     3    1
    22    21    22   ar
    23    21    20   ar
    24    57    22    1
    25    39     4    1
    26    55    20    1
    27    22    23   ar
    28    20    19   ar
    29    42     3    1
    30    42     1   am
    31    60    25    1
    32    71    49    1
    33     3     4    1
    34     3    18    1
    35    49     4    1
    36     4     5    1
    37    66    31    1
    38    23    58    1
    39    23    24   ar
    40    19    24   ar
    41    19    18    1
    42    61    25    1
    43    24    59    1
    44    25    26    1
    45    25     6    1
    46    48     1    2
    47     1    43   am
    48    18    54    1
    49    18    53    1
    50    31    26   ar
    51    31    30   ar
    52    65    30    1
    53    26    27   ar
    54    30    29   ar
    55     5    50    1
    56     5     6    1
    57     5    40    1
    58    50    72    1
    59     6    43    1
    60     6    41    1
    61    43     7    1
    62    27    62    1
    63    27    28   ar
    64    29    64    1
    65    29    28   ar
    66    28    63    1
    67    44     7    1
    68     7    45    1
    69     7    32    1
    70    67    33    1
    71    32    33   ar
    72    32    37   ar
    73    33    34   ar
    74    70    37    1
    75    37    36   ar
    76    34    68    1
    77    34    35   ar
    78    36    35   ar
    79    36    17    1
    80    35    69    1
    81    17    73    1
    82    75    73    1
    83    73    77    1
    84    73    76    1
