@<TRIPOS>MOLECULE
Mol_96
 106 112 0 0 0
SMALL
GASTEIGER
Energy = 0

@<TRIPOS>ATOM
      1 C           2.7271   -5.0106   -0.0216 C.2     1  LIG11       0.3060
      2 C           3.5049   -4.8734   -2.3228 C.3     1  LIG11       0.0416
      3 C           3.0018   -2.7598   -1.0011 C.3     1  LIG11       0.0601
      4 C           1.6502   -2.0469   -0.7530 C.3     1  LIG11       0.1016
      5 C           1.1048   -2.3154    0.6752 C.3     1  LIG11       0.1016
      6 C           0.7919   -3.8109    0.9220 C.3     1  LIG11       0.0601
      7 C           2.0828   -5.5229    2.2837 C.3     1  LIG11       0.0416
      8 C           2.8269   -4.4131   -3.6269 C.ar    1  LIG11      -0.0293
      9 C           3.5628   -3.7831   -4.6363 C.ar    1  LIG11      -0.0449
     10 C           2.9531   -3.4299   -5.8461 C.ar    1  LIG11       0.0370
     11 C           1.5740   -3.5849   -6.0083 C.ar    1  LIG11      -0.0496
     12 C           0.8266   -4.1969   -5.0008 C.ar    1  LIG11      -0.0607
     13 C           1.4619   -4.6432   -3.8381 C.ar    1  LIG11      -0.0570
     14 C           3.7758   -2.9076   -7.0006 C.2     1  LIG11       0.2443
     15 C           0.4610   -5.1551    8.9328 C.3     1  LIG11       0.0371
     16 C          -0.5804   -6.2792    8.9865 C.ar    1  LIG11      -0.0303
     17 C          -0.5322   -7.2686    9.9756 C.ar    1  LIG11      -0.0571
     18 C           4.1084   -2.2955   -0.0083 C.3     1  LIG11      -0.0064
     19 C           5.5319   -2.4790   -0.5613 C.ar    1  LIG11      -0.0455
     20 C           6.1382   -1.4415   -1.2801 C.ar    1  LIG11      -0.0585
     21 C           7.4430   -1.5777   -1.7631 C.ar    1  LIG11      -0.0615
     22 C           8.1524   -2.7593   -1.5334 C.ar    1  LIG11      -0.0617
     23 C           7.5509   -3.8024   -0.8237 C.ar    1  LIG11      -0.0615
     24 C           6.2440   -3.6648   -0.3445 C.ar    1  LIG11      -0.0585
     25 C          -0.2528   -4.3948   -0.0730 C.3     1  LIG11      -0.0064
     26 C          -0.7922   -5.7666    0.3645 C.ar    1  LIG11      -0.0455
     27 C          -1.8587   -5.8409    1.2678 C.ar    1  LIG11      -0.0585
     28 C          -2.3686   -7.0807    1.6647 C.ar    1  LIG11      -0.0615
     29 C          -1.8153   -8.2596    1.1581 C.ar    1  LIG11      -0.0617
     30 C          -0.7543   -8.1934    0.2510 C.ar    1  LIG11      -0.0615
     31 C          -0.2422   -6.9522   -0.1396 C.ar    1  LIG11      -0.0585
     32 C           2.5511   -4.7113    3.5073 C.ar    1  LIG11      -0.0293
     33 C           1.7553   -4.6013    4.6541 C.ar    1  LIG11      -0.0449
     34 C           2.2213   -3.9095    5.7783 C.ar    1  LIG11       0.0370
     35 C           3.4347   -3.2193    5.7272 C.ar    1  LIG11      -0.0496
     36 C           4.2297   -3.3097    4.5835 C.ar    1  LIG11      -0.0607
     37 C           3.8080   -4.0934    3.5046 C.ar    1  LIG11      -0.0570
     38 C           1.4468   -3.9157    7.0753 C.2     1  LIG11       0.2443
     39 C          -1.5227   -8.2532   10.0341 C.ar    1  LIG11      -0.0615
     40 C          -2.5505   -8.2694    9.0872 C.ar    1  LIG11      -0.0617
     41 C          -2.5822   -7.3041    8.0769 C.ar    1  LIG11      -0.0615
     42 N           2.9652   -4.2247   -1.1143 N.am    1  LIG11      -0.2752
     43 N           1.9432   -4.7111    1.0574 N.am    1  LIG11      -0.2752
     44 N           4.9165   -3.5464   -7.3331 N.am    1  LIG11      -0.3072
     45 C          -1.5992   -6.3115    8.0283 C.ar    1  LIG11      -0.0571
     46 N           1.0635   -5.0962    7.6052 N.am    1  LIG11      -0.3072
     47 C           5.6608   -3.1526   -8.5241 C.3     1  LIG11       0.0371
     48 O           3.2759   -6.0997   -0.0166 O.2     1  LIG11      -0.2524
     49 O           1.8654   -0.6358   -0.9624 O.3     1  LIG11      -0.3873
     50 O          -0.1126   -1.5781    0.9149 O.3     1  LIG11      -0.3873
     51 O           3.3700   -1.9384   -7.6216 O.2     1  LIG11      -0.2702
     52 O           1.2198   -2.8479    7.6206 O.2     1  LIG11      -0.2702
     53 C           7.0898   -3.7116   -8.4654 C.ar    1  LIG11      -0.0303
     54 C           7.6339   -4.4404   -9.5299 C.ar    1  LIG11      -0.0571
     55 C           8.9348   -4.9461   -9.4457 C.ar    1  LIG11      -0.0615
     56 C           9.7019   -4.7195   -8.2996 C.ar    1  LIG11      -0.0617
     57 C           9.1647   -3.9889   -7.2364 C.ar    1  LIG11      -0.0615
     58 C           7.8618   -3.4897   -7.3197 C.ar    1  LIG11      -0.0571
     59 H           3.3752   -5.9673   -2.3341 H       1  LIG11       0.0514
     60 H           4.5876   -4.6791   -2.3578 H       1  LIG11       0.0514
     61 H           3.3267   -2.3497   -1.9736 H       1  LIG11       0.0531
     62 H           0.9431   -2.3907   -1.5258 H       1  LIG11       0.0638
     63 H           1.8412   -2.0135    1.4387 H       1  LIG11       0.0638
     64 H           0.2610   -3.7940    1.8906 H       1  LIG11       0.0531
     65 H           2.8136   -6.3420    2.2117 H       1  LIG11       0.0514
     66 H           1.1148   -6.0051    2.4913 H       1  LIG11       0.0514
     67 H           4.6165   -3.5695   -4.4913 H       1  LIG11       0.0628
     68 H           1.0913   -3.2467   -6.9206 H       1  LIG11       0.0625
     69 H          -0.2435   -4.3340   -5.1282 H       1  LIG11       0.0618
     70 H           0.8843   -5.1862   -3.1042 H       1  LIG11       0.0621
     71 H           1.2657   -5.3226    9.6662 H       1  LIG11       0.0512
     72 H          -0.0567   -4.2211    9.2034 H       1  LIG11       0.0512
     73 H           0.2713   -7.2789   10.7050 H       1  LIG11       0.0621
     74 H           4.0170   -2.8555    0.9251 H       1  LIG11       0.0332
     75 H           3.9877   -1.2314    0.2478 H       1  LIG11       0.0332
     76 H           5.5986   -0.5181   -1.4653 H       1  LIG11       0.0620
     77 H           7.9061   -0.7653   -2.3154 H       1  LIG11       0.0618
     78 H           9.1674   -2.8651   -1.9052 H       1  LIG11       0.0618
     79 H           8.1021   -4.7207   -0.6445 H       1  LIG11       0.0618
     80 H           5.7857   -4.4852    0.1989 H       1  LIG11       0.0620
     81 H           0.2082   -4.5192   -1.0542 H       1  LIG11       0.0332
     82 H          -1.1044   -3.7067   -0.1966 H       1  LIG11       0.0332
     83 H          -2.2999   -4.9319    1.6638 H       1  LIG11       0.0620
     84 H          -3.1961   -7.1290    2.3662 H       1  LIG11       0.0618
     85 H          -2.2087   -9.2234    1.4679 H       1  LIG11       0.0618
     86 H          -0.3287   -9.1084   -0.1506 H       1  LIG11       0.0618
     87 H           0.5856   -6.9192   -0.8411 H       1  LIG11       0.0620
     88 H           0.7727   -5.0595    4.6871 H       1  LIG11       0.0628
     89 H           3.7629   -2.6317    6.5801 H       1  LIG11       0.0625
     90 H           5.1774   -2.7804    4.5418 H       1  LIG11       0.0618
     91 H           4.4766   -4.2338    2.6655 H       1  LIG11       0.0621
     92 H          -1.4940   -9.0056   10.8166 H       1  LIG11       0.0618
     93 H          -3.3229   -9.0308    9.1366 H       1  LIG11       0.0618
     94 H          -3.3709   -7.3246    7.3311 H       1  LIG11       0.0618
     95 H           5.2049   -4.3621   -6.8297 H       1  LIG11       0.1493
     96 H          -1.6291   -5.5615    7.2437 H       1  LIG11       0.0621
     97 H           1.2855   -5.9564    7.1432 H       1  LIG11       0.1493
     98 H           5.1230   -3.5366   -9.4055 H       1  LIG11       0.0512
     99 H           5.7294   -2.0565   -8.6110 H       1  LIG11       0.0512
    100 H           1.0623   -0.1253   -0.9895 H       1  LIG11       0.2100
    101 H           0.0173   -0.6399    1.0145 H       1  LIG11       0.2100
    102 H           7.0522   -4.6190  -10.4286 H       1  LIG11       0.0621
    103 H           9.3507   -5.5156  -10.2715 H       1  LIG11       0.0618
    104 H          10.7131   -5.1098   -8.2355 H       1  LIG11       0.0618
    105 H           9.7593   -3.8087   -6.3460 H       1  LIG11       0.0618
    106 H           7.4490   -2.9268   -6.4882 H       1  LIG11       0.0621
@<TRIPOS>BOND
     1   102    54    1
     2   103    55    1
     3    54    55   ar
     4    54    53   ar
     5    55    56   ar
     6    98    47    1
     7    99    47    1
     8    47    53    1
     9    47    44    1
    10    53    58   ar
    11    56   104    1
    12    56    57   ar
    13    51    14    2
    14    44    14   am
    15    44    95    1
    16    58    57   ar
    17    58   106    1
    18    57   105    1
    19    14    10    1
    20    68    11    1
    21    11    10   ar
    22    11    12   ar
    23    10     9   ar
    24    69    12    1
    25    12    13   ar
    26     9    67    1
    27     9     8   ar
    28    13     8   ar
    29    13    70    1
    30     8     2    1
    31    60     2    1
    32    59     2    1
    33     2    42    1
    34    77    21    1
    35    61     3    1
    36    78    22    1
    37    21    22   ar
    38    21    20   ar
    39    22    23   ar
    40    62     4    1
    41    76    20    1
    42    20    19   ar
    43    42     3    1
    44    42     1   am
    45    81    25    1
    46     3     4    1
    47     3    18    1
    48   100    49    1
    49    49     4    1
    50    87    31    1
    51    23    79    1
    52    23    24   ar
    53     4     5    1
    54    19    24   ar
    55    19    18    1
    56    24    80    1
    57    82    25    1
    58    86    30    1
    59    31    30   ar
    60    31    26   ar
    61    25    26    1
    62    25     6    1
    63     1    48    2
    64     1    43   am
    65    18    75    1
    66    18    74    1
    67    30    29   ar
    68    26    27   ar
    69     5    50    1
    70     5     6    1
    71     5    63    1
    72    50   101    1
    73     6    43    1
    74     6    64    1
    75    43     7    1
    76    29    85    1
    77    29    28   ar
    78    27    83    1
    79    27    28   ar
    80    28    84    1
    81    65     7    1
    82     7    66    1
    83     7    32    1
    84    91    37    1
    85    37    32   ar
    86    37    36   ar
    87    32    33   ar
    88    90    36    1
    89    36    35   ar
    90    33    88    1
    91    33    34   ar
    92    35    34   ar
    93    35    89    1
    94    34    38    1
    95    38    46   am
    96    38    52    2
    97    97    46    1
    98    96    45    1
    99    94    41    1
   100    46    15    1
   101    45    41   ar
   102    45    16   ar
   103    41    40   ar
   104    15    16    1
   105    15    72    1
   106    15    71    1
   107    16    17   ar
   108    40    93    1
   109    40    39   ar
   110    17    39   ar
   111    17    73    1
   112    39    92    1
