@<TRIPOS>MOLECULE
Mol_07
 66 68 0 0 0
SMALL
GASTEIGER
Energy = 0

@<TRIPOS>ATOM
      1 C           2.7054   -4.6426    0.0862 C.2     1  LIG11       0.3056
      2 C           3.3905   -4.4158   -2.2489 C.3     1  LIG11       0.0400
      3 C           2.8623   -2.3630   -0.8425 C.3     1  LIG11       0.0599
      4 C           1.4524   -1.7608   -0.6248 C.3     1  LIG11       0.1016
      5 C           0.9383   -2.0335    0.8110 C.3     1  LIG11       0.1016
      6 C           0.7379   -3.5475    1.0649 C.3     1  LIG11       0.0599
      7 C           2.2401   -5.0800    2.4384 C.3     1  LIG11       0.0400
      8 C           2.3690   -4.1584   -3.3854 C.3     1  LIG11       0.0631
      9 O           2.9458   -4.5748   -4.6385 O.3     1  LIG11      -0.3814
     10 C           2.1009   -4.2860   -5.7695 C.3     1  LIG11       0.0365
     11 H           3.5528   -5.5057   -2.2194 H       1  LIG11       0.0488
     12 H           4.3555   -3.9598   -2.5224 H       1  LIG11       0.0488
     13 H           3.1858   -1.9043   -1.7925 H       1  LIG11       0.0530
     14 H           0.7766   -2.2094   -1.3716 H       1  LIG11       0.0638
     15 H           1.6594   -1.6655    1.5595 H       1  LIG11       0.0638
     16 H           0.1986   -3.5675    2.0256 H       1  LIG11       0.0530
     17 H           3.1592   -5.6871    2.3908 H       1  LIG11       0.0488
     18 C           3.9393   -1.8351    0.1485 C.3     1  LIG11      -0.0064
     19 C           5.3638   -2.0804   -0.3769 C.ar    1  LIG11      -0.0455
     20 C           5.9587   -3.3384   -0.2298 C.ar    1  LIG11      -0.0585
     21 C           7.2598   -3.5666   -0.6875 C.ar    1  LIG11      -0.0615
     22 C           7.9786   -2.5350   -1.2968 C.ar    1  LIG11      -0.0617
     23 C           7.3901   -1.2769   -1.4512 C.ar    1  LIG11      -0.0615
     24 C           6.0866   -1.0533   -0.9975 C.ar    1  LIG11      -0.0585
     25 C          -0.2743   -4.2327    0.1011 C.3     1  LIG11      -0.0064
     26 C          -0.7774   -5.5758    0.6612 C.ar    1  LIG11      -0.0455
     27 C          -0.1063   -6.7684    0.3626 C.ar    1  LIG11      -0.0585
     28 C          -0.5859   -7.9922    0.8378 C.ar    1  LIG11      -0.0615
     29 C          -1.7381   -8.0346    1.6282 C.ar    1  LIG11      -0.0617
     30 C          -2.4042   -6.8483    1.9443 C.ar    1  LIG11      -0.0615
     31 C          -1.9212   -5.6250    1.4671 C.ar    1  LIG11      -0.0585
     32 C           2.4543   -4.1268    3.6434 C.3     1  LIG11       0.0631
     33 O           2.8184   -4.9152    4.7944 O.3     1  LIG11      -0.3814
     34 C           3.0603   -4.1231    5.9734 C.3     1  LIG11       0.0365
     35 H           1.4064   -5.7655    2.6582 H       1  LIG11       0.0488
     36 H           2.1218   -3.0888   -3.4455 H       1  LIG11       0.0575
     37 H           1.4439   -4.7176   -3.1715 H       1  LIG11       0.0575
     38 H           1.1345   -4.8069   -5.6871 H       1  LIG11       0.0523
     39 H           2.6134   -4.6374   -6.6767 H       1  LIG11       0.0523
     40 H           1.9250   -3.2032   -5.8706 H       1  LIG11       0.0523
     41 H           3.8575   -2.3283    1.1263 H       1  LIG11       0.0332
     42 N           2.9060   -3.8249   -0.9880 N.am    1  LIG11      -0.2774
     43 N           1.9628   -4.3460    1.1908 N.am    1  LIG11      -0.2774
     44 H           3.7971   -0.7531    0.3029 H       1  LIG11       0.0332
     45 H           5.4137   -4.1478    0.2437 H       1  LIG11       0.0620
     46 H           7.7125   -4.5462   -0.5682 H       1  LIG11       0.0618
     47 H           8.9908   -2.7102   -1.6487 H       1  LIG11       0.0618
     48 O           3.2366   -5.7401    0.0617 O.2     1  LIG11      -0.2524
     49 O           1.5207   -0.3467   -0.9000 O.3     1  LIG11      -0.3873
     50 O          -0.3158   -1.3663    1.0618 O.3     1  LIG11      -0.3873
     51 H           7.9474   -0.4733   -1.9235 H       1  LIG11       0.0618
     52 H           5.6423   -0.0719   -1.1304 H       1  LIG11       0.0620
     53 H           0.1804   -4.4221   -0.8808 H       1  LIG11       0.0332
     54 H          -1.1436   -3.5741   -0.0555 H       1  LIG11       0.0332
     55 H           0.7928   -6.7515   -0.2441 H       1  LIG11       0.0620
     56 H          -0.0645   -8.9125    0.5924 H       1  LIG11       0.0618
     57 H          -2.1134   -8.9858    1.9945 H       1  LIG11       0.0618
     58 H          -3.2984   -6.8779    2.5600 H       1  LIG11       0.0618
     59 H          -2.4463   -4.7114    1.7268 H       1  LIG11       0.0620
     60 H           1.5370   -3.5658    3.8752 H       1  LIG11       0.0575
     61 H           3.2530   -3.4105    3.3924 H       1  LIG11       0.0575
     62 H           2.1710   -3.5375    6.2548 H       1  LIG11       0.0523
     63 H           3.9146   -3.4438    5.8273 H       1  LIG11       0.0523
     64 H           3.2977   -4.8097    6.7992 H       1  LIG11       0.0523
     65 H           0.6666    0.0708   -0.9595 H       1  LIG11       0.2100
     66 H          -0.2384   -0.4188    1.1273 H       1  LIG11       0.2100
@<TRIPOS>BOND
     1    39    10    1
     2    40    10    1
     3    10    38    1
     4    10     9    1
     5     9     8    1
     6    36     8    1
     7     8    37    1
     8     8     2    1
     9    12     2    1
    10     2    11    1
    11     2    42    1
    12    51    23    1
    13    13     3    1
    14    47    22    1
    15    23    22   ar
    16    23    24   ar
    17    14     4    1
    18    22    21   ar
    19    52    24    1
    20    24    19   ar
    21    42     3    1
    22    42     1   am
    23    65    49    1
    24    49     4    1
    25    53    25    1
    26     3     4    1
    27     3    18    1
    28    21    46    1
    29    21    20   ar
    30     4     5    1
    31    19    20   ar
    32    19    18    1
    33    55    27    1
    34    20    45    1
    35    54    25    1
    36    48     1    2
    37     1    43   am
    38    25    26    1
    39    25     6    1
    40    18    44    1
    41    18    41    1
    42    27    26   ar
    43    27    28   ar
    44    56    28    1
    45    26    31   ar
    46     5    50    1
    47     5     6    1
    48     5    15    1
    49    28    29   ar
    50    50    66    1
    51     6    43    1
    52     6    16    1
    53    43     7    1
    54    31    59    1
    55    31    30   ar
    56    29    30   ar
    57    29    57    1
    58    30    58    1
    59    17     7    1
    60     7    35    1
    61     7    32    1
    62    61    32    1
    63    32    60    1
    64    32    33    1
    65    33    34    1
    66    63    34    1
    67    34    62    1
    68    34    64    1
