@<TRIPOS>MOLECULE
Mol_71
 98 102 0 0 0
SMALL
GASTEIGER
Energy = 0

@<TRIPOS>ATOM
      1 C           3.0693   -5.0489    0.0016 C.2     1  LIG11       0.3060
      2 C           2.5985   -5.6579    2.3173 C.3     1  LIG11       0.0416
      3 C           1.0540   -4.0871    1.0540 C.3     1  LIG11       0.0601
      4 C           1.1630   -2.5649    0.7887 C.3     1  LIG11       0.1016
      5 C           1.6107   -2.2442   -0.6629 C.3     1  LIG11       0.1016
      6 C           3.0306   -2.7815   -0.9655 C.3     1  LIG11       0.0601
      7 C           3.6988   -4.8210   -2.3300 C.3     1  LIG11       0.0416
      8 C           2.8974   -4.7782    3.5437 C.ar    1  LIG11      -0.0293
      9 C           1.9732   -4.6557    4.5877 C.ar    1  LIG11      -0.0449
     10 C           2.2853   -3.8976    5.7215 C.ar    1  LIG11       0.0370
     11 C           3.4789   -3.1749    5.7798 C.ar    1  LIG11      -0.0496
     12 C           4.4050   -3.2891    4.7415 C.ar    1  LIG11      -0.0607
     13 C           4.1209   -4.1029    3.6399 C.ar    1  LIG11      -0.0570
     14 C           1.3575   -3.8639    6.9125 C.2     1  LIG11       0.2441
     15 C           5.7813   -3.5949   -8.6177 C.3     1  LIG11       0.0116
     16 C           6.5338   -2.2388   -8.6177 C.3     1  LIG11      -0.0402
     17 C           7.2251   -1.9736   -7.2549 C.3     1  LIG11      -0.0639
     18 C           0.0328   -4.7850    0.1119 C.3     1  LIG11      -0.0064
     19 C          -0.4004   -6.1781    0.5856 C.ar    1  LIG11      -0.0455
     20 C           0.1298   -7.3402    0.0098 C.ar    1  LIG11      -0.0585
     21 C          -0.2935   -8.5991    0.4462 C.ar    1  LIG11      -0.0615
     22 C          -1.2403   -8.7027    1.4688 C.ar    1  LIG11      -0.0617
     23 C          -1.7743   -7.5460    2.0432 C.ar    1  LIG11      -0.0615
     24 C          -1.3584   -6.2882    1.5984 C.ar    1  LIG11      -0.0585
     25 C           4.1233   -2.1955   -0.0216 C.3     1  LIG11      -0.0064
     26 C           5.5482   -2.3931   -0.5683 C.ar    1  LIG11      -0.0455
     27 C           6.2861   -3.5308   -0.2206 C.ar    1  LIG11      -0.0585
     28 C           7.5989   -3.6930   -0.6728 C.ar    1  LIG11      -0.0615
     29 C           8.1814   -2.7249   -1.4949 C.ar    1  LIG11      -0.0617
     30 C           7.4450   -1.5960   -1.8638 C.ar    1  LIG11      -0.0615
     31 C           6.1338   -1.4338   -1.4044 C.ar    1  LIG11      -0.0585
     32 C           2.9938   -4.3422   -3.6139 C.ar    1  LIG11      -0.0293
     33 C           3.7372   -3.8593   -4.6943 C.ar    1  LIG11      -0.0449
     34 C           3.1047   -3.4872   -5.8879 C.ar    1  LIG11       0.0370
     35 C           1.7090   -3.4550   -5.9595 C.ar    1  LIG11      -0.0496
     36 C           0.9527   -3.9085   -4.8790 C.ar    1  LIG11      -0.0607
     37 C           1.6013   -4.3958   -3.7423 C.ar    1  LIG11      -0.0570
     38 C           3.9086   -3.1430   -7.1206 C.2     1  LIG11       0.2441
     39 C           0.1949   -5.0469    8.7102 C.3     1  LIG11       0.0116
     40 C          -0.8495   -6.1896    8.6433 C.3     1  LIG11      -0.0402
     41 C          -1.6736   -6.2580    9.9539 C.3     1  LIG11      -0.0639
     42 N           2.3071   -4.8514    1.1178 N.am    1  LIG11      -0.2752
     43 N           3.1536   -4.2383   -1.0928 N.am    1  LIG11      -0.2752
     44 N           0.9922   -5.0292    7.4875 N.am    1  LIG11      -0.3113
     45 H           3.4737   -6.3197    2.2285 H       1  LIG11       0.0514
     46 N           5.0492   -3.8173   -7.3765 N.am    1  LIG11      -0.3113
     47 H           1.7385   -6.3169    2.5137 H       1  LIG11       0.0514
     48 O           3.7502   -6.0604   -0.0326 O.2     1  LIG11      -0.2524
     49 O          -0.1310   -1.9904    1.0658 O.3     1  LIG11      -0.3873
     50 O           1.6216   -0.8222   -0.9073 O.3     1  LIG11      -0.3873
     51 O           0.9930   -2.7760    7.3278 O.2     1  LIG11      -0.2702
     52 O           3.4832   -2.2805   -7.8723 O.2     1  LIG11      -0.2702
     53 H           0.5765   -4.1327    2.0476 H       1  LIG11       0.0531
     54 H           1.8754   -2.1540    1.5228 H       1  LIG11       0.0638
     55 H           0.9228   -2.6956   -1.3963 H       1  LIG11       0.0638
     56 H           3.2660   -2.3344   -1.9476 H       1  LIG11       0.0531
     57 H           3.6008   -5.9178   -2.3713 H       1  LIG11       0.0514
     58 H           4.7741   -4.5865   -2.3611 H       1  LIG11       0.0514
     59 H           1.0090   -5.1500    4.5300 H       1  LIG11       0.0628
     60 H           3.6867   -2.5405    6.6368 H       1  LIG11       0.0625
     61 H           5.3459   -2.7497    4.7980 H       1  LIG11       0.0618
     62 H           4.8643   -4.2138    2.8583 H       1  LIG11       0.0621
     63 H           5.0893   -3.6464   -9.4753 H       1  LIG11       0.0462
     64 H           6.5192   -4.4059   -8.7465 H       1  LIG11       0.0462
     65 H           5.8325   -1.4147   -8.8298 H       1  LIG11       0.0278
     66 H           7.2864   -2.2589   -9.4244 H       1  LIG11       0.0278
     67 H           7.9497   -1.1498   -7.3514 H       1  LIG11       0.0230
     68 H           7.7575   -2.8720   -6.9067 H       1  LIG11       0.0230
     69 H           6.4762   -1.6916   -6.4974 H       1  LIG11       0.0230
     70 H           0.4989   -4.9174   -0.8593 H       1  LIG11       0.0332
     71 H          -0.8720   -4.1726   -0.0304 H       1  LIG11       0.0332
     72 H           0.8700   -7.2772   -0.7824 H       1  LIG11       0.0620
     73 H           0.1125   -9.4973   -0.0097 H       1  LIG11       0.0618
     74 H          -1.5610   -9.6800    1.8161 H       1  LIG11       0.0618
     75 H          -2.5137   -7.6234    2.8341 H       1  LIG11       0.0618
     76 H          -1.7866   -5.3939    2.0398 H       1  LIG11       0.0620
     77 H           4.0733   -2.6682    0.9685 H       1  LIG11       0.0332
     78 H           3.9597   -1.1151    0.1207 H       1  LIG11       0.0332
     79 H           5.8438   -4.2973    0.4066 H       1  LIG11       0.0620
     80 H           8.1676   -4.5718   -0.3840 H       1  LIG11       0.0618
     81 H           9.2020   -2.8496   -1.8450 H       1  LIG11       0.0618
     82 H           7.8948   -0.8447   -2.5065 H       1  LIG11       0.0618
     83 H           5.5746   -0.5517   -1.6999 H       1  LIG11       0.0620
     84 H           4.8143   -3.7774   -4.6062 H       1  LIG11       0.0628
     85 H           1.2128   -3.0955   -6.8560 H       1  LIG11       0.0625
     86 H          -0.1327   -3.8928   -4.9266 H       1  LIG11       0.0618
     87 H           1.0013   -4.8303   -2.9656 H       1  LIG11       0.0621
     88 H          -0.3384   -4.0953    8.8713 H       1  LIG11       0.0462
     89 H           0.8714   -5.2056    9.5662 H       1  LIG11       0.0462
     90 H          -0.3390   -7.1542    8.4846 H       1  LIG11       0.0278
     91 H          -1.5198   -6.0084    7.7865 H       1  LIG11       0.0278
     92 H          -2.4181   -7.0668    9.8919 H       1  LIG11       0.0230
     93 H          -2.2003   -5.3062   10.1249 H       1  LIG11       0.0230
     94 H          -1.0100   -6.4546   10.8107 H       1  LIG11       0.0230
     95 H           1.3456   -5.8950    7.1298 H       1  LIG11       0.1490
     96 H           5.3852   -4.5205   -6.7492 H       1  LIG11       0.1490
     97 H          -0.1259   -1.0395    1.1167 H       1  LIG11       0.2100
     98 H           0.7537   -0.4318   -0.9475 H       1  LIG11       0.2100
@<TRIPOS>BOND
     1    63    15    1
     2    66    16    1
     3    65    16    1
     4    64    15    1
     5    15    16    1
     6    15    46    1
     7    16    17    1
     8    52    38    2
     9    46    38   am
    10    46    96    1
    11    67    17    1
    12    17    68    1
    13    17    69    1
    14    38    34    1
    15    85    35    1
    16    35    34   ar
    17    35    36   ar
    18    34    33   ar
    19    86    36    1
    20    36    37   ar
    21    33    84    1
    22    33    32   ar
    23    37    32   ar
    24    37    87    1
    25    32     7    1
    26    82    30    1
    27    57     7    1
    28    58     7    1
    29     7    43    1
    30    56     6    1
    31    30    29   ar
    32    30    31   ar
    33    81    29    1
    34    83    31    1
    35    29    28   ar
    36    31    26   ar
    37    55     5    1
    38    43     6    1
    39    43     1   am
    40     6     5    1
    41     6    25    1
    42    98    50    1
    43    50     5    1
    44    70    18    1
    45    72    20    1
    46    28    80    1
    47    28    27   ar
    48     5     4    1
    49    26    27   ar
    50    26    25    1
    51    27    79    1
    52    48     1    2
    53    71    18    1
    54    25    78    1
    55    25    77    1
    56    73    21    1
    57     1    42   am
    58    20    21   ar
    59    20    19   ar
    60    18    19    1
    61    18     3    1
    62    21    22   ar
    63    19    24   ar
    64     4     3    1
    65     4    49    1
    66     4    54    1
    67     3    42    1
    68     3    53    1
    69    49    97    1
    70    42     2    1
    71    22    74    1
    72    22    23   ar
    73    24    76    1
    74    24    23   ar
    75    23    75    1
    76    45     2    1
    77     2    47    1
    78     2     8    1
    79    62    13    1
    80     8    13   ar
    81     8     9   ar
    82    13    12   ar
    83    59     9    1
    84     9    10   ar
    85    12    61    1
    86    12    11   ar
    87    10    11   ar
    88    10    14    1
    89    11    60    1
    90    14    51    2
    91    14    44   am
    92    95    44    1
    93    44    39    1
    94    91    40    1
    95    90    40    1
    96    40    39    1
    97    40    41    1
    98    39    88    1
    99    39    89    1
   100    92    41    1
   101    41    93    1
   102    41    94    1
