@<TRIPOS>MOLECULE
Mol_18
 66 70 0 0 0
SMALL
GASTEIGER
Energy = 0

@<TRIPOS>ATOM
      1 C           2.8003   -4.7783    0.3057 C.2     1  LIG11       0.3054
      2 C           3.4474   -4.6238   -2.0382 C.3     1  LIG11       0.0194
      3 C           2.9465   -2.5291   -0.6893 C.3     1  LIG11       0.0598
      4 C           1.5508   -1.8900   -0.4836 C.3     1  LIG11       0.1016
      5 C           1.0105   -2.1621    0.9421 C.3     1  LIG11       0.1016
      6 C           0.7897   -3.6734    1.1901 C.3     1  LIG11       0.0598
      7 C           2.2476   -5.1489    2.6557 C.3     1  LIG11       0.0194
      8 C           2.4593   -4.2260   -3.1636 C.3     1  LIG11      -0.0251
      9 C           3.9726   -3.7394    4.0766 C.3     1  LIG11      -0.0485
     10 C           3.1112   -4.5560    5.0655 C.3     1  LIG11      -0.0485
     11 C           2.8741   -4.6611   -4.5864 C.3     1  LIG11      -0.0485
     12 C           2.9128   -3.1686   -4.1950 C.3     1  LIG11      -0.0485
     13 H           3.4298   -5.7250   -2.0093 H       1  LIG11       0.0468
     14 H           4.4792   -4.3100   -2.2616 H       1  LIG11       0.0468
     15 H           3.2641   -2.1080   -1.6585 H       1  LIG11       0.0530
     16 H           0.8724   -2.3060   -1.2466 H       1  LIG11       0.0638
     17 H           1.7284   -1.8055    1.6991 H       1  LIG11       0.0638
     18 C           4.0257   -2.0071    0.3052 C.3     1  LIG11      -0.0064
     19 C           5.4502   -2.2350   -0.2299 C.ar    1  LIG11      -0.0455
     20 C           6.0592   -3.4888   -0.1060 C.ar    1  LIG11      -0.0585
     21 C           7.3553   -3.7006   -0.5861 C.ar    1  LIG11      -0.0615
     22 C           8.0595   -2.6538   -1.1859 C.ar    1  LIG11      -0.0617
     23 C           7.4602   -1.3973   -1.3101 C.ar    1  LIG11      -0.0615
     24 C           6.1603   -1.1919   -0.8388 C.ar    1  LIG11      -0.0585
     25 C          -0.1947   -4.3495    0.1922 C.3     1  LIG11      -0.0064
     26 C          -0.7114   -5.6967    0.7258 C.ar    1  LIG11      -0.0455
     27 C          -1.7066   -5.7265    1.7110 C.ar    1  LIG11      -0.0585
     28 C          -2.1966   -6.9449    2.1897 C.ar    1  LIG11      -0.0615
     29 C          -1.6987   -8.1475    1.6802 C.ar    1  LIG11      -0.0617
     30 C          -0.7063   -8.1256    0.6973 C.ar    1  LIG11      -0.0615
     31 C          -0.2074   -6.9050    0.2306 C.ar    1  LIG11      -0.0585
     32 C           2.5010   -4.0619    3.7356 C.3     1  LIG11      -0.0251
     33 H           0.2275   -3.6816    2.1390 H       1  LIG11       0.0530
     34 H           3.0895   -5.8591    2.6436 H       1  LIG11       0.0468
     35 H           1.3512   -5.7223    2.9401 H       1  LIG11       0.0468
     36 H           1.3774   -4.3184   -2.9844 H       1  LIG11       0.0316
     37 H           4.1966   -2.6998    4.3629 H       1  LIG11       0.0269
     38 H           4.7674   -4.2915    3.5516 H       1  LIG11       0.0269
     39 H           2.7832   -4.0366    5.9802 H       1  LIG11       0.0269
     40 H           3.3489   -5.6266    5.1607 H       1  LIG11       0.0269
     41 H           2.0653   -4.9681   -5.2684 H       1  LIG11       0.0269
     42 N           2.9806   -3.9935   -0.7949 N.am    1  LIG11      -0.2793
     43 N           2.0063   -4.4741    1.3710 N.am    1  LIG11      -0.2793
     44 H           3.8496   -5.1549   -4.7160 H       1  LIG11       0.0269
     45 H           2.1242   -2.5277   -4.6193 H       1  LIG11       0.0269
     46 H           3.9167   -2.7261   -4.1024 H       1  LIG11       0.0269
     47 H           3.9458   -2.5098    1.2799 H       1  LIG11       0.0332
     48 O           3.3997   -5.8403    0.3356 O.2     1  LIG11      -0.2524
     49 O           1.6650   -0.4738   -0.7340 O.3     1  LIG11      -0.3873
     50 O          -0.2420   -1.4845    1.1753 O.3     1  LIG11      -0.3873
     51 H           3.8823   -0.9281    0.4751 H       1  LIG11       0.0332
     52 H           5.5292   -4.3084    0.3660 H       1  LIG11       0.0620
     53 H           7.8155   -4.6795   -0.4917 H       1  LIG11       0.0618
     54 H           9.0684   -2.8152   -1.5535 H       1  LIG11       0.0618
     55 H           8.0067   -0.5807   -1.7727 H       1  LIG11       0.0618
     56 H           5.7080   -0.2115   -0.9488 H       1  LIG11       0.0620
     57 H           0.2912   -4.5196   -0.7768 H       1  LIG11       0.0332
     58 H          -1.0670   -3.6987    0.0199 H       1  LIG11       0.0332
     59 H          -2.1075   -4.7997    2.1090 H       1  LIG11       0.0620
     60 H          -2.9654   -6.9594    2.9567 H       1  LIG11       0.0618
     61 H          -2.0822   -9.0951    2.0470 H       1  LIG11       0.0618
     62 H          -0.3222   -9.0582    0.2952 H       1  LIG11       0.0618
     63 H           0.5742   -6.9055   -0.5226 H       1  LIG11       0.0620
     64 H           1.7914   -3.2309    3.8676 H       1  LIG11       0.0316
     65 H           0.8251   -0.0279   -0.7883 H       1  LIG11       0.2100
     66 H          -0.1567   -0.5390    1.2542 H       1  LIG11       0.2100
@<TRIPOS>BOND
     1    41    11    1
     2    44    11    1
     3    45    12    1
     4    11    12    1
     5    11     8    1
     6    12    46    1
     7    12     8    1
     8     8    36    1
     9     8     2    1
    10    14     2    1
    11     2    13    1
    12     2    42    1
    13    55    23    1
    14    15     3    1
    15    54    22    1
    16    23    22   ar
    17    23    24   ar
    18    16     4    1
    19    22    21   ar
    20    56    24    1
    21    24    19   ar
    22    42     3    1
    23    42     1   am
    24    65    49    1
    25    57    25    1
    26    49     4    1
    27     3     4    1
    28     3    18    1
    29    21    53    1
    30    21    20   ar
    31    63    31    1
    32     4     5    1
    33    19    20   ar
    34    19    18    1
    35    20    52    1
    36    58    25    1
    37    25    26    1
    38    25     6    1
    39    31    30   ar
    40    31    26   ar
    41    62    30    1
    42    18    51    1
    43    18    47    1
    44     1    48    2
    45     1    43   am
    46    30    29   ar
    47    26    27   ar
    48     5    50    1
    49     5     6    1
    50     5    17    1
    51    50    66    1
    52     6    43    1
    53     6    33    1
    54    43     7    1
    55    29    61    1
    56    29    28   ar
    57    27    59    1
    58    27    28   ar
    59    28    60    1
    60    34     7    1
    61     7    35    1
    62     7    32    1
    63    38     9    1
    64    32    64    1
    65    32     9    1
    66    32    10    1
    67     9    37    1
    68     9    10    1
    69    10    40    1
    70    10    39    1
