@<TRIPOS>MOLECULE
Mol_85
 98 104 0 0 0
SMALL
GASTEIGER
Energy = 0

@<TRIPOS>ATOM
      1 C           2.9283   -4.9380    0.0232 C.2     1  LIG11       0.3060
      2 C           2.4314   -5.5407    2.3210 C.3     1  LIG11       0.0416
      3 C           0.9900   -3.8391    1.0953 C.3     1  LIG11       0.0601
      4 C           1.2020   -2.3332    0.7986 C.3     1  LIG11       0.1016
      5 C           1.6154   -2.0819   -0.6774 C.3     1  LIG11       0.1016
      6 C           2.9999   -2.6923   -0.9994 C.3     1  LIG11       0.0601
      7 C           3.5748   -4.7956   -2.3071 C.3     1  LIG11       0.0416
      8 C           2.5524   -4.7646    3.6424 C.ar    1  LIG11      -0.0293
      9 C           1.5881   -4.9141    4.6444 C.ar    1  LIG11      -0.0449
     10 C           1.7706   -4.3116    5.8935 C.ar    1  LIG11       0.0374
     11 C           2.8368   -3.4344    6.1032 C.ar    1  LIG11      -0.0496
     12 C           3.7861   -3.2532    5.0950 C.ar    1  LIG11      -0.0607
     13 C           3.6482   -3.9237    3.8747 C.ar    1  LIG11      -0.0570
     14 C           0.8431   -4.6424    7.0389 C.2     1  LIG11       0.2493
     15 C           5.8421   -3.6529   -8.3428 C.ar    1  LIG11       0.1252
     16 N           6.9348   -4.4394   -8.2779 N.ar    1  LIG11      -0.2390
     17 C           7.8508   -4.4725   -9.2634 C.ar    1  LIG11       0.0436
     18 C          -0.1040   -4.4606    0.1786 C.3     1  LIG11      -0.0064
     19 C          -0.7139   -5.7572    0.7282 C.ar    1  LIG11      -0.0455
     20 C          -1.7752   -5.6957    1.6385 C.ar    1  LIG11      -0.0585
     21 C          -2.3532   -6.8691    2.1310 C.ar    1  LIG11      -0.0615
     22 C          -1.8712   -8.1132    1.7156 C.ar    1  LIG11      -0.0617
     23 C          -0.8155   -8.1807    0.8023 C.ar    1  LIG11      -0.0615
     24 C          -0.2364   -7.0062    0.3128 C.ar    1  LIG11      -0.0585
     25 C           4.1386   -2.1284   -0.0972 C.3     1  LIG11      -0.0064
     26 C           5.5392   -2.3866   -0.6770 C.ar    1  LIG11      -0.0455
     27 C           6.2674   -3.5191   -0.2934 C.ar    1  LIG11      -0.0585
     28 C           7.5514   -3.7416   -0.8001 C.ar    1  LIG11      -0.0615
     29 C           8.1160   -2.8355   -1.7016 C.ar    1  LIG11      -0.0617
     30 C           7.3944   -1.7039   -2.0907 C.ar    1  LIG11      -0.0615
     31 C           6.1105   -1.4834   -1.5821 C.ar    1  LIG11      -0.0585
     32 C           2.8328   -4.3960   -3.5948 C.ar    1  LIG11      -0.0293
     33 C           3.5368   -3.8385   -4.6649 C.ar    1  LIG11      -0.0449
     34 C           2.9083   -3.6145   -5.8966 C.ar    1  LIG11       0.0374
     35 C           1.5220   -3.7597   -6.0031 C.ar    1  LIG11      -0.0496
     36 C           0.7944   -4.2523   -4.9181 C.ar    1  LIG11      -0.0607
     37 C           1.4565   -4.6058   -3.7385 C.ar    1  LIG11      -0.0570
     38 C           3.7256   -3.2456   -7.1148 C.2     1  LIG11       0.2493
     39 C           7.7057   -3.6420  -10.3761 C.ar    1  LIG11       0.0361
     40 C           6.6050   -2.7831  -10.4482 C.ar    1  LIG11      -0.0430
     41 C           5.6583   -2.7737   -9.4191 C.ar    1  LIG11      -0.0205
     42 N           2.1907   -4.6864    1.1444 N.am    1  LIG11      -0.2752
     43 N           3.0555   -4.1562   -1.0872 N.am    1  LIG11      -0.2752
     44 N           0.7299   -5.9453    7.3768 N.am    1  LIG11      -0.2664
     45 C           0.0202   -6.4726    8.4879 C.ar    1  LIG11       0.1252
     46 N           4.9444   -3.8150   -7.2552 N.am    1  LIG11      -0.2664
     47 N          -0.0948   -7.8157    8.4971 N.ar    1  LIG11      -0.2390
     48 O           3.5469   -5.9894    0.0037 O.2     1  LIG11      -0.2524
     49 O          -0.0307   -1.6500    1.1052 O.3     1  LIG11      -0.3873
     50 O           1.6749   -0.6717   -0.9779 O.3     1  LIG11      -0.3873
     51 O           0.2766   -3.7148    7.5905 O.2     1  LIG11      -0.2698
     52 O           3.2194   -2.4729   -7.9103 O.2     1  LIG11      -0.2698
     53 C          -0.6351   -8.4772    9.5386 C.ar    1  LIG11       0.0436
     54 C          -1.1572   -7.7676   10.6220 C.ar    1  LIG11       0.0361
     55 C          -1.1064   -6.3710   10.6104 C.ar    1  LIG11      -0.0430
     56 C          -0.5100   -5.7057    9.5348 C.ar    1  LIG11      -0.0205
     57 H           3.3726   -6.1121    2.2831 H       1  LIG11       0.0514
     58 H           1.6185   -6.2807    2.3745 H       1  LIG11       0.0514
     59 H           0.5340   -3.8388    2.1005 H       1  LIG11       0.0531
     60 H           1.9638   -1.9605    1.5027 H       1  LIG11       0.0638
     61 H           0.8935   -2.5296   -1.3799 H       1  LIG11       0.0638
     62 H           3.2252   -2.2868   -2.0018 H       1  LIG11       0.0531
     63 H           3.4869   -5.8937   -2.3049 H       1  LIG11       0.0514
     64 H           4.6481   -4.5602   -2.3747 H       1  LIG11       0.0514
     65 H           0.6975   -5.5080    4.4649 H       1  LIG11       0.0628
     66 H           2.9319   -2.9138    7.0517 H       1  LIG11       0.0625
     67 H           4.6347   -2.5976    5.2675 H       1  LIG11       0.0618
     68 H           4.4051   -3.7955    3.1086 H       1  LIG11       0.0621
     69 H           8.6943   -5.1485   -9.1794 H       1  LIG11       0.0841
     70 BR          8.9627   -3.6850  -11.7346 Br      1  LIG11      -0.0487
     71 H           0.3309   -4.6927   -0.7948 H       1  LIG11       0.0332
     72 H          -0.9289   -3.7497    0.0115 H       1  LIG11       0.0332
     73 H          -2.1595   -4.7338    1.9634 H       1  LIG11       0.0620
     74 H          -3.1780   -6.8142    2.8351 H       1  LIG11       0.0618
     75 H          -2.3165   -9.0254    2.1012 H       1  LIG11       0.0618
     76 H          -0.4457   -9.1467    0.4720 H       1  LIG11       0.0618
     77 H           0.5843   -7.0725   -0.3949 H       1  LIG11       0.0620
     78 H           4.1016   -2.5803    0.9028 H       1  LIG11       0.0332
     79 H           4.0186   -1.0399    0.0262 H       1  LIG11       0.0332
     80 H           5.8402   -4.2333    0.4035 H       1  LIG11       0.0620
     81 H           8.1119   -4.6192   -0.4922 H       1  LIG11       0.0618
     82 H           9.1121   -3.0098   -2.0979 H       1  LIG11       0.0618
     83 H           7.8336   -0.9956   -2.7872 H       1  LIG11       0.0618
     84 H           5.5609   -0.6006   -1.8932 H       1  LIG11       0.0620
     85 H           4.5831   -3.5845   -4.5371 H       1  LIG11       0.0628
     86 H           1.0148   -3.5053   -6.9292 H       1  LIG11       0.0625
     87 H          -0.2826   -4.3703   -4.9970 H       1  LIG11       0.0618
     88 H           0.8905   -5.0583   -2.9392 H       1  LIG11       0.0621
     89 H           6.4877   -2.1255  -11.3035 H       1  LIG11       0.0630
     90 H           4.8240   -2.0900   -9.4901 H       1  LIG11       0.0652
     91 H           1.2226   -6.6136    6.8214 H       1  LIG11       0.1566
     92 H           5.2445   -4.4749   -6.5706 H       1  LIG11       0.1566
     93 H          -0.6582   -9.5611    9.5240 H       1  LIG11       0.0841
     94 H           0.0504   -0.7010    1.1070 H       1  LIG11       0.2100
     95 H           0.8206   -0.2529   -1.0319 H       1  LIG11       0.2100
     96 BR         -1.9052   -8.6730   12.0538 Br      1  LIG11      -0.0487
     97 H          -1.5255   -5.8068   11.4374 H       1  LIG11       0.0630
     98 H          -0.4697   -4.6256    9.5544 H       1  LIG11       0.0652
@<TRIPOS>BOND
     1    70    39    1
     2    89    40    1
     3    40    39   ar
     4    40    41   ar
     5    39    17   ar
     6    90    41    1
     7    41    15   ar
     8    17    69    1
     9    17    16   ar
    10    15    16   ar
    11    15    46    1
    12    52    38    2
    13    46    38   am
    14    46    92    1
    15    38    34    1
    16    86    35    1
    17    35    34   ar
    18    35    36   ar
    19    34    33   ar
    20    87    36    1
    21    36    37   ar
    22    33    85    1
    23    33    32   ar
    24    37    32   ar
    25    37    88    1
    26    32     7    1
    27    83    30    1
    28    64     7    1
    29     7    63    1
    30     7    43    1
    31    82    29    1
    32    30    29   ar
    33    30    31   ar
    34    62     6    1
    35    84    31    1
    36    29    28   ar
    37    31    26   ar
    38    61     5    1
    39    43     6    1
    40    43     1   am
    41    95    50    1
    42     6     5    1
    43     6    25    1
    44    50     5    1
    45    28    81    1
    46    28    27   ar
    47    71    18    1
    48     5     4    1
    49    26    27   ar
    50    26    25    1
    51    77    24    1
    52    27    80    1
    53    25    79    1
    54    25    78    1
    55    48     1    2
    56    72    18    1
    57     1    42   am
    58    18    19    1
    59    18     3    1
    60    24    19   ar
    61    24    23   ar
    62    76    23    1
    63    19    20   ar
    64     4     3    1
    65     4    49    1
    66     4    60    1
    67    23    22   ar
    68     3    42    1
    69     3    59    1
    70    49    94    1
    71    42     2    1
    72    20    73    1
    73    20    21   ar
    74    22    75    1
    75    22    21   ar
    76    21    74    1
    77    57     2    1
    78     2    58    1
    79     2     8    1
    80    68    13    1
    81     8    13   ar
    82     8     9   ar
    83    13    12   ar
    84    65     9    1
    85     9    10   ar
    86    12    67    1
    87    12    11   ar
    88    10    11   ar
    89    10    14    1
    90    11    66    1
    91    91    44    1
    92    14    44   am
    93    14    51    2
    94    44    45    1
    95    45    47   ar
    96    45    56   ar
    97    47    53   ar
    98    93    53    1
    99    56    98    1
   100    56    55   ar
   101    53    54   ar
   102    55    54   ar
   103    55    97    1
   104    54    96    1
