@<TRIPOS>MOLECULE
Mol_03
 64 66 0 0 0
SMALL
GASTEIGER
Energy = 0

@<TRIPOS>ATOM
      1 C           2.8169   -4.6141    0.2010 C.2     1  LIG11       0.3054
      2 C           2.2421   -5.1524    2.5129 C.3     1  LIG11       0.0163
      3 C           0.7659   -3.6124    1.1257 C.3     1  LIG11       0.0598
      4 C           0.9256   -2.0846    0.9552 C.3     1  LIG11       0.1016
      5 C           1.4568   -1.7471   -0.4600 C.3     1  LIG11       0.1016
      6 C           2.8834   -2.3101   -0.6616 C.3     1  LIG11       0.0598
      7 C           3.6213   -4.2892   -2.0832 C.3     1  LIG11       0.0163
      8 C           2.6003   -4.2020    3.6894 C.3     1  LIG11      -0.0399
      9 C           2.6826   -4.9817    5.0285 C.3     1  LIG11      -0.0639
     10 H           3.0671   -5.8802    2.4447 H       1  LIG11       0.0465
     11 H           1.3354   -5.7284    2.7572 H       1  LIG11       0.0465
     12 H           0.1965   -3.6879    2.0683 H       1  LIG11       0.0530
     13 H           1.6132   -1.7309    1.7406 H       1  LIG11       0.0638
     14 H           0.8202   -2.1815   -1.2485 H       1  LIG11       0.0638
     15 H           3.2109   -1.8095   -1.5879 H       1  LIG11       0.0530
     16 H           3.7956   -5.3767   -2.0569 H       1  LIG11       0.0465
     17 H           4.6047   -3.8147   -2.2310 H       1  LIG11       0.0465
     18 C          -0.1756   -4.2507    0.0636 C.3     1  LIG11      -0.0064
     19 C          -0.7386   -5.5854    0.5677 C.ar    1  LIG11      -0.0455
     20 C          -0.1435   -6.7966    0.1990 C.ar    1  LIG11      -0.0585
     21 C          -0.6686   -8.0069    0.6622 C.ar    1  LIG11      -0.0615
     22 C          -1.7831   -8.0105    1.5050 C.ar    1  LIG11      -0.0617
     23 C          -2.3819   -6.8024    1.8740 C.ar    1  LIG11      -0.0615
     24 C          -1.8625   -5.5943    1.4025 C.ar    1  LIG11      -0.0585
     25 C           3.9065   -1.8099    0.3969 C.3     1  LIG11      -0.0064
     26 C           5.3381   -2.0418   -0.1022 C.ar    1  LIG11      -0.0455
     27 C           5.9847   -1.0564   -0.8573 C.ar    1  LIG11      -0.0585
     28 C           7.2855   -1.2656   -1.3224 C.ar    1  LIG11      -0.0615
     29 C           7.9475   -2.4621   -1.0320 C.ar    1  LIG11      -0.0617
     30 C           7.3080   -3.4460   -0.2737 C.ar    1  LIG11      -0.0615
     31 C           6.0066   -3.2354    0.1911 C.ar    1  LIG11      -0.0585
     32 C           2.7311   -4.0297   -3.3302 C.3     1  LIG11      -0.0399
     33 C           3.3293   -4.7045   -4.5937 C.3     1  LIG11      -0.0639
     34 H           1.8460   -3.4069    3.7971 H       1  LIG11       0.0278
     35 H           3.5716   -3.7210    3.4865 H       1  LIG11       0.0278
     36 H           1.7051   -5.4298    5.2671 H       1  LIG11       0.0230
     37 H           2.9663   -4.3058    5.8508 H       1  LIG11       0.0230
     38 H           3.4324   -5.7853    4.9621 H       1  LIG11       0.0230
     39 H           0.3501   -4.4277   -0.8855 H       1  LIG11       0.0332
     40 H          -1.0257   -3.5811   -0.1438 H       1  LIG11       0.0332
     41 H           0.7283   -6.8044   -0.4481 H       1  LIG11       0.0620
     42 N           2.0020   -4.3926    1.2728 N.am    1  LIG11      -0.2796
     43 N           3.0094   -3.7617   -0.8488 N.am    1  LIG11      -0.2796
     44 H          -0.2092   -8.9450    0.3663 H       1  LIG11       0.0618
     45 H          -2.1842   -8.9497    1.8732 H       1  LIG11       0.0618
     46 H          -3.2501   -6.8027    2.5261 H       1  LIG11       0.0618
     47 H          -2.3377   -4.6609    1.6885 H       1  LIG11       0.0620
     48 O           3.4308   -5.6681    0.1847 O.2     1  LIG11      -0.2524
     49 O          -0.3509   -1.4619    1.2071 O.3     1  LIG11      -0.3873
     50 O           1.4847   -0.3224   -0.6813 O.3     1  LIG11      -0.3873
     51 H           3.7955   -2.3390    1.3529 H       1  LIG11       0.0332
     52 H           3.7600   -0.7345    0.5874 H       1  LIG11       0.0332
     53 H           5.4788   -0.1237   -1.0867 H       1  LIG11       0.0620
     54 H           7.7818   -0.4986   -1.9090 H       1  LIG11       0.0618
     55 H           8.9572   -2.6261   -1.3951 H       1  LIG11       0.0618
     56 H           7.8210   -4.3749   -0.0445 H       1  LIG11       0.0618
     57 H           5.5199   -4.0069    0.7793 H       1  LIG11       0.0620
     58 H           2.6349   -2.9513   -3.5311 H       1  LIG11       0.0278
     59 H           1.7224   -4.4327   -3.1440 H       1  LIG11       0.0278
     60 H           2.7188   -4.4690   -5.4797 H       1  LIG11       0.0230
     61 H           3.3556   -5.7987   -4.4714 H       1  LIG11       0.0230
     62 H           4.3553   -4.3446   -4.7693 H       1  LIG11       0.0230
     63 H          -0.2972   -0.5159    1.3083 H       1  LIG11       0.2100
     64 H           0.6168    0.0638   -0.7582 H       1  LIG11       0.2100
@<TRIPOS>BOND
     1    60    33    1
     2    62    33    1
     3    33    61    1
     4    33    32    1
     5    58    32    1
     6    32    59    1
     7    32     7    1
     8    17     7    1
     9     7    16    1
    10     7    43    1
    11    54    28    1
    12    15     6    1
    13    55    29    1
    14    28    29   ar
    15    28    27   ar
    16    14     5    1
    17    53    27    1
    18    29    30   ar
    19    39    18    1
    20    27    26   ar
    21    43     6    1
    22    43     1   am
    23    64    50    1
    24    50     5    1
    25     6     5    1
    26     6    25    1
    27     5     4    1
    28    41    20    1
    29    30    56    1
    30    30    31   ar
    31    40    18    1
    32    26    31   ar
    33    26    25    1
    34    18    19    1
    35    18     3    1
    36    48     1    2
    37    31    57    1
    38    20    19   ar
    39    20    21   ar
    40     1    42   am
    41    44    21    1
    42    25    52    1
    43    25    51    1
    44    19    24   ar
    45    21    22   ar
    46     4     3    1
    47     4    49    1
    48     4    13    1
    49     3    42    1
    50     3    12    1
    51    49    63    1
    52    42     2    1
    53    24    47    1
    54    24    23   ar
    55    22    45    1
    56    22    23   ar
    57    23    46    1
    58    10     2    1
    59     2    11    1
    60     2     8    1
    61    35     8    1
    62     8    34    1
    63     8     9    1
    64    38     9    1
    65     9    36    1
    66     9    37    1
