@<TRIPOS>MOLECULE
Mol_56
 78 83 0 0 0
SMALL
GASTEIGER
Energy = 0

@<TRIPOS>ATOM
      1 C           2.7441   -4.7642   -0.3983 C.2     1  LIG11       0.3060
      2 C           2.4217   -5.6334    1.8640 C.3     1  LIG11       0.0416
      3 C           0.8421   -3.8915    0.8839 C.3     1  LIG11       0.0601
      4 C           0.9910   -2.3496    0.8677 C.3     1  LIG11       0.1016
      5 C           1.4063   -1.8284   -0.5320 C.3     1  LIG11       0.1016
      6 C           2.7837   -2.3770   -0.9788 C.3     1  LIG11       0.0601
      7 C           2.9282   -4.2205   -2.7716 C.3     1  LIG11       0.0279
      8 C           2.7572   -4.9565    3.2083 C.ar    1  LIG11      -0.0295
      9 C           1.9762   -5.1562    4.3535 C.ar    1  LIG11      -0.0493
     10 C           2.3120   -4.5482    5.5725 C.ar    1  LIG11      -0.0176
     11 C           3.4014   -3.6695    5.6364 C.ar    1  LIG11      -0.0179
     12 C           4.1748   -3.4521    4.4926 C.ar    1  LIG11      -0.0537
     13 C           3.8884   -4.1405    3.3105 C.ar    1  LIG11      -0.0565
     14 C           1.5756   -4.8108    6.7341 C.ar    1  LIG11      -0.0540
     15 C           1.9075   -4.1888    7.9423 C.ar    1  LIG11      -0.0612
     16 C           2.9738   -3.2880    7.9941 C.ar    1  LIG11      -0.0612
     17 C           3.7152   -3.0244    6.8401 C.ar    1  LIG11      -0.0540
     18 C          -0.2255   -4.4044   -0.1351 C.3     1  LIG11      -0.0064
     19 C          -0.9474   -5.6695    0.3570 C.ar    1  LIG11      -0.0455
     20 C          -2.0055   -5.5485    1.2659 C.ar    1  LIG11      -0.0585
     21 C          -2.6837   -6.6819    1.7232 C.ar    1  LIG11      -0.0615
     22 C          -2.3099   -7.9489    1.2682 C.ar    1  LIG11      -0.0617
     23 C          -1.2598   -8.0765    0.3545 C.ar    1  LIG11      -0.0615
     24 C          -0.5774   -6.9415   -0.0956 C.ar    1  LIG11      -0.0585
     25 C           3.9391   -1.9997   -0.0029 C.3     1  LIG11      -0.0064
     26 C           5.3651   -2.2703   -0.5226 C.ar    1  LIG11      -0.0455
     27 C           6.1072   -1.2515   -1.1340 C.ar    1  LIG11      -0.0585
     28 C           7.4049   -1.4910   -1.5981 C.ar    1  LIG11      -0.0615
     29 C           7.9869   -2.7505   -1.4344 C.ar    1  LIG11      -0.0617
     30 C           7.2662   -3.7653   -0.8002 C.ar    1  LIG11      -0.0615
     31 C           5.9591   -3.5289   -0.3631 C.ar    1  LIG11      -0.0585
     32 C           1.7468   -3.7747   -3.6708 C.3     1  LIG11      -0.0342
     33 C           2.2702   -3.8985   -5.1276 C.3     1  LIG11      -0.0513
     34 C           3.8178   -4.0056   -5.0204 C.3     1  LIG11      -0.0513
     35 C           4.1581   -3.6802   -3.5440 C.3     1  LIG11      -0.0342
     36 H           3.3081   -6.2494    1.6462 H       1  LIG11       0.0514
     37 H           1.5777   -6.3309    1.9807 H       1  LIG11       0.0514
     38 H           0.3997   -4.0757    1.8786 H       1  LIG11       0.0531
     39 H           1.7288   -2.0729    1.6383 H       1  LIG11       0.0638
     40 H           0.6645   -2.1491   -1.2812 H       1  LIG11       0.0638
     41 H           2.9942   -1.7587   -1.8621 H       1  LIG11       0.0531
     42 N           2.0815   -4.6770    0.7928 N.am    1  LIG11      -0.2752
     43 N           2.7730   -3.7975   -1.3620 N.am    1  LIG11      -0.2765
     44 H           2.9604   -5.3204   -2.8753 H       1  LIG11       0.0501
     45 H           1.1045   -5.7996    4.2990 H       1  LIG11       0.0627
     46 H           5.0082   -2.7561    4.5150 H       1  LIG11       0.0624
     47 H           4.5660   -4.0476    2.4730 H       1  LIG11       0.0621
     48 O           3.3431   -5.8012   -0.6298 O.2     1  LIG11      -0.2524
     49 O          -0.2747   -1.7828    1.2646 O.3     1  LIG11      -0.3873
     50 O           1.4725   -0.3866   -0.5672 O.3     1  LIG11      -0.3873
     51 H           0.7397   -5.5030    6.7115 H       1  LIG11       0.0624
     52 H           1.3379   -4.4047    8.8412 H       1  LIG11       0.0618
     53 H           3.2263   -2.7954    8.9289 H       1  LIG11       0.0618
     54 H           4.5380   -2.3176    6.8895 H       1  LIG11       0.0624
     55 H           0.2291   -4.6026   -1.1152 H       1  LIG11       0.0332
     56 H          -1.0106   -3.6486   -0.2939 H       1  LIG11       0.0332
     57 H          -2.3092   -4.5685    1.6210 H       1  LIG11       0.0620
     58 H          -3.5010   -6.5779    2.4308 H       1  LIG11       0.0618
     59 H          -2.8347   -8.8307    1.6239 H       1  LIG11       0.0618
     60 H          -0.9751   -9.0604   -0.0058 H       1  LIG11       0.0618
     61 H           0.2402   -7.0545   -0.8007 H       1  LIG11       0.0620
     62 H           3.8290   -2.5668    0.9219 H       1  LIG11       0.0332
     63 H           3.8636   -0.9332    0.2633 H       1  LIG11       0.0332
     64 H           5.6826   -0.2594   -1.2465 H       1  LIG11       0.0620
     65 H           7.9648   -0.6978   -2.0847 H       1  LIG11       0.0618
     66 H           8.9934   -2.9397   -1.7969 H       1  LIG11       0.0618
     67 H           7.7242   -4.7380   -0.6460 H       1  LIG11       0.0618
     68 H           5.4129   -4.3362    0.1100 H       1  LIG11       0.0620
     69 H           0.8382   -4.3770   -3.5037 H       1  LIG11       0.0283
     70 H           1.4983   -2.7215   -3.4752 H       1  LIG11       0.0283
     71 H           1.9635   -3.0225   -5.7250 H       1  LIG11       0.0266
     72 H           1.8579   -4.7991   -5.6143 H       1  LIG11       0.0266
     73 H           4.3349   -3.3322   -5.7250 H       1  LIG11       0.0266
     74 H           4.1357   -5.0394   -5.2367 H       1  LIG11       0.0266
     75 H           4.2685   -2.5901   -3.4672 H       1  LIG11       0.0283
     76 H           5.0972   -4.1444   -3.2023 H       1  LIG11       0.0283
     77 H          -0.2351   -0.8465    1.4335 H       1  LIG11       0.2100
     78 H           0.6220    0.0408   -0.5358 H       1  LIG11       0.2100
@<TRIPOS>BOND
     1    71    33    1
     2    73    34    1
     3    72    33    1
     4    74    34    1
     5    33    34    1
     6    33    32    1
     7    34    35    1
     8    32    69    1
     9    32    70    1
    10    32     7    1
    11    35    75    1
    12    35    76    1
    13    35     7    1
    14    44     7    1
    15     7    43    1
    16    65    28    1
    17    41     6    1
    18    66    29    1
    19    28    29   ar
    20    28    27   ar
    21    29    30   ar
    22    43     6    1
    23    43     1   am
    24    40     5    1
    25    64    27    1
    26    27    26   ar
    27    55    18    1
    28     6     5    1
    29     6    25    1
    30    61    24    1
    31    30    67    1
    32    30    31   ar
    33    48     1    2
    34    50    78    1
    35    50     5    1
    36     5     4    1
    37    26    31   ar
    38    26    25    1
    39     1    42   am
    40    31    68    1
    41    56    18    1
    42    18    19    1
    43    18     3    1
    44    24    23   ar
    45    24    19   ar
    46    60    23    1
    47    25    63    1
    48    25    62    1
    49    23    22   ar
    50    19    20   ar
    51    42     3    1
    52    42     2    1
    53     4     3    1
    54     4    49    1
    55     4    39    1
    56     3    38    1
    57    49    77    1
    58    20    57    1
    59    20    21   ar
    60    22    59    1
    61    22    21   ar
    62    36     2    1
    63    21    58    1
    64     2    37    1
    65     2     8    1
    66    47    13    1
    67     8    13   ar
    68     8     9   ar
    69    13    12   ar
    70    45     9    1
    71     9    10   ar
    72    12    46    1
    73    12    11   ar
    74    10    11   ar
    75    10    14   ar
    76    11    17   ar
    77    51    14    1
    78    14    15   ar
    79    17    54    1
    80    17    16   ar
    81    15    16   ar
    82    15    52    1
    83    16    53    1
