@<TRIPOS>MOLECULE
Mol_39
 80 84 0 0 0
SMALL
GASTEIGER
Energy = 0

@<TRIPOS>ATOM
      1 C           2.8808   -5.0250    0.4201 C.2     1  LIG11       0.3060
      2 C           2.2524   -5.4426    2.7393 C.3     1  LIG11       0.0416
      3 C           0.7917   -4.0016    1.2456 C.3     1  LIG11       0.0601
      4 C           0.9519   -2.4945    0.9309 C.3     1  LIG11       0.1016
      5 C           1.5102   -2.2482   -0.4955 C.3     1  LIG11       0.1016
      6 C           2.9439   -2.8095   -0.6591 C.3     1  LIG11       0.0601
      7 C           3.6456   -4.9352   -1.8734 C.3     1  LIG11       0.0416
      8 C           2.5604   -4.4068    3.8329 C.ar    1  LIG11      -0.0300
      9 C           3.8333   -3.8329    3.9264 C.ar    1  LIG11      -0.0567
     10 C           4.1385   -2.9394    4.9596 C.ar    1  LIG11      -0.0561
     11 C           3.1780   -2.6248    5.9267 C.ar    1  LIG11      -0.0222
     12 C           1.8988   -3.1806    5.8211 C.ar    1  LIG11      -0.0561
     13 C           1.5815   -4.0341    4.7619 C.ar    1  LIG11      -0.0567
     14 C           1.5297   -2.9319   -6.9928 C.3     1  LIG11       0.0692
     15 O           2.5746   -2.5257   -7.8950 O.3     1  LIG11      -0.3904
     16 C           3.4930   -1.6903    7.1038 C.3     1  LIG11       0.0692
     17 O           3.4325   -2.4249    8.3379 O.3     1  LIG11      -0.3904
     18 C          -0.1816   -4.7265    0.2701 C.3     1  LIG11      -0.0064
     19 C          -0.6410   -6.1061    0.7703 C.ar    1  LIG11      -0.0455
     20 C          -1.6441   -6.2157    1.7412 C.ar    1  LIG11      -0.0585
     21 C          -2.0912   -7.4734    2.1600 C.ar    1  LIG11      -0.0615
     22 C          -1.5389   -8.6325    1.6086 C.ar    1  LIG11      -0.0617
     23 C          -0.5313   -8.5300    0.6459 C.ar    1  LIG11      -0.0615
     24 C          -0.0757   -7.2726    0.2404 C.ar    1  LIG11      -0.0585
     25 C           3.9808   -2.1718    0.3131 C.3     1  LIG11      -0.0064
     26 C           5.4402   -2.3681   -0.1421 C.ar    1  LIG11      -0.0455
     27 C           6.1106   -1.3521   -0.8364 C.ar    1  LIG11      -0.0585
     28 C           7.4482   -1.5058   -1.2131 C.ar    1  LIG11      -0.0615
     29 C           8.1285   -2.6887   -0.9123 C.ar    1  LIG11      -0.0617
     30 C           7.4641   -3.7138   -0.2344 C.ar    1  LIG11      -0.0615
     31 C           6.1274   -3.5533    0.1461 C.ar    1  LIG11      -0.0585
     32 C           3.0739   -4.3787   -3.1866 C.ar    1  LIG11      -0.0300
     33 C           1.7529   -4.6428   -3.5634 C.ar    1  LIG11      -0.0567
     34 C           1.2470   -4.1543   -4.7733 C.ar    1  LIG11      -0.0561
     35 C           2.0653   -3.4178   -5.6369 C.ar    1  LIG11      -0.0222
     36 C           3.3782   -3.1316   -5.2452 C.ar    1  LIG11      -0.0561
     37 C           3.8737   -3.5951   -4.0255 C.ar    1  LIG11      -0.0567
     38 H           3.0867   -6.1612    2.7505 H       1  LIG11       0.0514
     39 H           1.3529   -6.0219    3.0015 H       1  LIG11       0.0514
     40 H           0.2402   -3.9899    2.2008 H       1  LIG11       0.0531
     41 H           1.6240   -2.0681    1.6943 H       1  LIG11       0.0638
     42 N           2.0318   -4.7601    1.4541 N.am    1  LIG11      -0.2752
     43 N           3.0512   -4.2739   -0.7036 N.am    1  LIG11      -0.2752
     44 H           0.8789   -2.7304   -1.2599 H       1  LIG11       0.0638
     45 H           3.2518   -2.4026   -1.6365 H       1  LIG11       0.0531
     46 H           3.4471   -6.0192   -1.8979 H       1  LIG11       0.0514
     47 H           4.7375   -4.8041   -1.8398 H       1  LIG11       0.0514
     48 O           3.5610   -6.0351    0.4954 O.2     1  LIG11      -0.2524
     49 O          -0.3447   -1.8824    1.0921 O.3     1  LIG11      -0.3873
     50 O           1.5465   -0.8395   -0.8056 O.3     1  LIG11      -0.3873
     51 H           4.5970   -4.0846    3.1972 H       1  LIG11       0.0621
     52 H           5.1284   -2.4962    5.0080 H       1  LIG11       0.0621
     53 H           1.1474   -2.9509    6.5703 H       1  LIG11       0.0621
     54 H           0.5678   -4.4096    4.6718 H       1  LIG11       0.0621
     55 H           0.8836   -2.0592   -6.8120 H       1  LIG11       0.0607
     56 H           0.9221   -3.7219   -7.4654 H       1  LIG11       0.0607
     57 H           3.1769   -3.2347   -8.1012 H       1  LIG11       0.2098
     58 H           2.7299   -0.8972    7.1415 H       1  LIG11       0.0607
     59 H           4.4774   -1.2066    6.9909 H       1  LIG11       0.0607
     60 H           4.0528   -3.1475    8.3610 H       1  LIG11       0.2098
     61 H           0.3037   -4.8682   -0.7012 H       1  LIG11       0.0332
     62 H          -1.0847   -4.1169    0.1047 H       1  LIG11       0.0332
     63 H          -2.0867   -5.3232    2.1722 H       1  LIG11       0.0620
     64 H          -2.8700   -7.5525    2.9129 H       1  LIG11       0.0618
     65 H          -1.8904   -9.6099    1.9258 H       1  LIG11       0.0618
     66 H          -0.1025   -9.4279    0.2113 H       1  LIG11       0.0618
     67 H           0.7196   -7.2109   -0.4956 H       1  LIG11       0.0620
     68 H           3.8813   -2.5932    1.3212 H       1  LIG11       0.0332
     69 H           3.7879   -1.0897    0.3888 H       1  LIG11       0.0332
     70 H           5.5975   -0.4290   -1.0854 H       1  LIG11       0.0620
     71 H           7.9615   -0.7057   -1.7385 H       1  LIG11       0.0618
     72 H           9.1680   -2.8093   -1.2038 H       1  LIG11       0.0618
     73 H           7.9893   -4.6355   -0.0021 H       1  LIG11       0.0618
     74 H           5.6272   -4.3597    0.6710 H       1  LIG11       0.0620
     75 H           1.1126   -5.2329   -2.9182 H       1  LIG11       0.0621
     76 H           0.2129   -4.3521   -5.0399 H       1  LIG11       0.0621
     77 H           4.0294   -2.5440   -5.8826 H       1  LIG11       0.0621
     78 H           4.8871   -3.3376   -3.7348 H       1  LIG11       0.0621
     79 H          -0.3209   -0.9308    1.0989 H       1  LIG11       0.2100
     80 H           0.6852   -0.4517   -0.9282 H       1  LIG11       0.2100
@<TRIPOS>BOND
     1    57    15    1
     2    15    14    1
     3    56    14    1
     4    14    55    1
     5    14    35    1
     6    77    36    1
     7    35    36   ar
     8    35    34   ar
     9    36    37   ar
    10    76    34    1
    11    34    33   ar
    12    37    78    1
    13    37    32   ar
    14    33    32   ar
    15    33    75    1
    16    32     7    1
    17    46     7    1
    18     7    47    1
    19     7    43    1
    20    71    28    1
    21    45     6    1
    22    44     5    1
    23    28    29   ar
    24    28    27   ar
    25    72    29    1
    26    70    27    1
    27    80    50    1
    28    29    30   ar
    29    27    26   ar
    30    50     5    1
    31    43     6    1
    32    43     1   am
    33    61    18    1
    34     6     5    1
    35     6    25    1
    36    67    24    1
    37     5     4    1
    38    30    73    1
    39    30    31   ar
    40    26    31   ar
    41    26    25    1
    42    62    18    1
    43    31    74    1
    44    66    23    1
    45    24    23   ar
    46    24    19   ar
    47    18    19    1
    48    18     3    1
    49    25    69    1
    50    25    68    1
    51     1    48    2
    52     1    42   am
    53    23    22   ar
    54    19    20   ar
    55     4    49    1
    56     4     3    1
    57     4    41    1
    58    49    79    1
    59     3    42    1
    60     3    40    1
    61    42     2    1
    62    22    65    1
    63    22    21   ar
    64    20    21   ar
    65    20    63    1
    66    21    64    1
    67     2    38    1
    68     2    39    1
    69     2     8    1
    70    51     9    1
    71     8     9   ar
    72     8    13   ar
    73     9    10   ar
    74    54    13    1
    75    13    12   ar
    76    10    52    1
    77    10    11   ar
    78    12    11   ar
    79    12    53    1
    80    11    16    1
    81    59    16    1
    82    16    58    1
    83    16    17    1
    84    17    60    1
