@<TRIPOS>MOLECULE
Mol_13
 94 96 0 0 0
SMALL
GASTEIGER
Energy = 0

@<TRIPOS>ATOM
      1 C           2.7593   -4.7948   -0.0428 C.2     1  LIG11       0.3054
      2 C           2.3300   -5.3629    2.2786 C.3     1  LIG11       0.0165
      3 C           0.8012   -3.7641    1.0339 C.3     1  LIG11       0.0598
      4 C           0.9981   -2.2345    0.8868 C.3     1  LIG11       0.1016
      5 C           1.4851   -1.8627   -0.5332 C.3     1  LIG11       0.1016
      6 C           2.8764   -2.4712   -0.8355 C.3     1  LIG11       0.0598
      7 C           3.3108   -4.4343   -2.3870 C.3     1  LIG11       0.0165
      8 C           2.5596   -4.4222    3.4994 C.3     1  LIG11      -0.0371
      9 C           1.9067   -4.8702    7.3285 C.3     1  LIG11      -0.0507
     10 C           1.8770   -5.0001    4.7605 C.3     1  LIG11      -0.0516
     11 C           2.6483   -4.5744   -4.8633 C.3     1  LIG11      -0.0516
     12 C           3.4148   -3.3838   -5.5053 C.3     1  LIG11      -0.0528
     13 C           0.4502   -5.3851    7.5617 C.3     1  LIG11      -0.0467
     14 C           2.0935   -4.0916    5.9976 C.3     1  LIG11      -0.0528
     15 C           0.1012   -5.3208    9.0751 C.3     1  LIG11      -0.0627
     16 C           0.2419   -6.8414    7.0486 C.3     1  LIG11      -0.0627
     17 C           4.1842   -3.8351   -6.7746 C.3     1  LIG11      -0.0507
     18 C          -0.2361   -4.3592    0.0371 C.3     1  LIG11      -0.0064
     19 C          -0.8369   -5.6813    0.5459 C.ar    1  LIG11      -0.0455
     20 C          -1.9779   -5.6721    1.3568 C.ar    1  LIG11      -0.0585
     21 C          -2.5541   -6.8719    1.7884 C.ar    1  LIG11      -0.0615
     22 C          -1.9865   -8.0922    1.4161 C.ar    1  LIG11      -0.0617
     23 C          -0.8377   -8.1084    0.6188 C.ar    1  LIG11      -0.0615
     24 C          -0.2599   -6.9083    0.1954 C.ar    1  LIG11      -0.0585
     25 C           3.9967   -2.0520    0.1635 C.3     1  LIG11      -0.0064
     26 C           5.4002   -2.2790   -0.4278 C.ar    1  LIG11      -0.0455
     27 C           6.0596   -1.2482   -1.1098 C.ar    1  LIG11      -0.0585
     28 C           7.3425   -1.4446   -1.6301 C.ar    1  LIG11      -0.0615
     29 C           7.9785   -2.6793   -1.4760 C.ar    1  LIG11      -0.0617
     30 C           7.3261   -3.7140   -0.8008 C.ar    1  LIG11      -0.0615
     31 C           6.0422   -3.5146   -0.2831 C.ar    1  LIG11      -0.0585
     32 C           2.1697   -4.2326   -3.4249 C.3     1  LIG11      -0.0371
     33 C           4.8903   -2.6513   -7.5012 C.3     1  LIG11      -0.0467
     34 C           5.2887   -3.0812   -8.9397 C.3     1  LIG11      -0.0627
     35 C           6.1488   -2.1569   -6.7301 C.3     1  LIG11      -0.0627
     36 H           3.2238   -6.0047    2.1927 H       1  LIG11       0.0465
     37 H           1.4784   -6.0442    2.4348 H       1  LIG11       0.0465
     38 H           0.2834   -3.8578    2.0048 H       1  LIG11       0.0530
     39 H           1.7379   -1.8948    1.6280 H       1  LIG11       0.0638
     40 H           0.7810   -2.2451   -1.2898 H       1  LIG11       0.0638
     41 H           3.1613   -1.9608   -1.7723 H       1  LIG11       0.0530
     42 N           2.0303   -4.5683    1.0827 N.am    1  LIG11      -0.2796
     43 N           2.8968   -3.9190   -1.0757 N.am    1  LIG11      -0.2796
     44 H           3.5543   -5.5089   -2.3896 H       1  LIG11       0.0465
     45 H           4.2320   -3.9138   -2.6853 H       1  LIG11       0.0465
     46 H           2.1464   -3.4171    3.3502 H       1  LIG11       0.0280
     47 H           3.6418   -4.2934    3.6721 H       1  LIG11       0.0280
     48 O           3.3348   -5.8672   -0.1271 O.2     1  LIG11      -0.2524
     49 O          -0.2550   -1.5955    1.2062 O.3     1  LIG11      -0.3873
     50 O           1.5779   -0.4326   -0.6975 O.3     1  LIG11      -0.3873
     51 H           2.1980   -4.1779    8.1355 H       1  LIG11       0.0268
     52 H           2.6197   -5.7105    7.3610 H       1  LIG11       0.0268
     53 H           2.3073   -5.9992    4.9314 H       1  LIG11       0.0266
     54 H           0.7940   -5.0929    4.5685 H       1  LIG11       0.0266
     55 H           1.7801   -4.8129   -5.5013 H       1  LIG11       0.0266
     56 H           3.2875   -5.4712   -4.8268 H       1  LIG11       0.0266
     57 H           4.1243   -2.9499   -4.7891 H       1  LIG11       0.0265
     58 H           2.6857   -2.5997   -5.7717 H       1  LIG11       0.0265
     59 H          -0.2645   -4.7237    7.0415 H       1  LIG11       0.0295
     60 H           1.4037   -3.2305    5.9584 H       1  LIG11       0.0265
     61 H           3.1207   -3.6914    5.9812 H       1  LIG11       0.0265
     62 H           0.1194   -4.2776    9.4295 H       1  LIG11       0.0232
     63 H           0.8290   -5.9052    9.6585 H       1  LIG11       0.0232
     64 H          -0.9066   -5.7224    9.2622 H       1  LIG11       0.0232
     65 H           0.9760   -7.5188    7.5106 H       1  LIG11       0.0232
     66 H           0.3382   -6.9233    5.9592 H       1  LIG11       0.0232
     67 H          -0.7661   -7.1984    7.3078 H       1  LIG11       0.0232
     68 H           3.4540   -4.3073   -7.4514 H       1  LIG11       0.0268
     69 H           4.9342   -4.5970   -6.5050 H       1  LIG11       0.0268
     70 H           0.2231   -4.5361   -0.9444 H       1  LIG11       0.0332
     71 H          -1.0658   -3.6497   -0.1097 H       1  LIG11       0.0332
     72 H          -2.4284   -4.7310    1.6562 H       1  LIG11       0.0620
     73 H          -3.4434   -6.8554    2.4118 H       1  LIG11       0.0618
     74 H          -2.4357   -9.0250    1.7446 H       1  LIG11       0.0618
     75 H          -0.3957   -9.0566    0.3283 H       1  LIG11       0.0618
     76 H           0.6404   -6.9331   -0.4104 H       1  LIG11       0.0620
     77 H           3.9268   -2.6191    1.1034 H       1  LIG11       0.0332
     78 H           3.8927   -0.9838    0.4128 H       1  LIG11       0.0332
     79 H           5.5791   -0.2836   -1.2385 H       1  LIG11       0.0620
     80 H           7.8474   -0.6381   -2.1538 H       1  LIG11       0.0618
     81 H           8.9753   -2.8334   -1.8790 H       1  LIG11       0.0618
     82 H           7.8185   -4.6740   -0.6775 H       1  LIG11       0.0618
     83 H           5.5476   -4.3290    0.2357 H       1  LIG11       0.0620
     84 H           1.3355   -4.8984   -3.1485 H       1  LIG11       0.0280
     85 H           1.7882   -3.1999   -3.4112 H       1  LIG11       0.0280
     86 H           4.1799   -1.8110   -7.5924 H       1  LIG11       0.0295
     87 H           6.0054   -3.9157   -8.9042 H       1  LIG11       0.0232
     88 H           5.7495   -2.2399   -9.4800 H       1  LIG11       0.0232
     89 H           4.4009   -3.4029   -9.5067 H       1  LIG11       0.0232
     90 H           6.6659   -1.3751   -7.3074 H       1  LIG11       0.0232
     91 H           6.8530   -2.9876   -6.5683 H       1  LIG11       0.0232
     92 H           5.8854   -1.7271   -5.7528 H       1  LIG11       0.0232
     93 H          -0.1870   -0.6510    1.3077 H       1  LIG11       0.2100
     94 H           0.7316    0.0036   -0.7233 H       1  LIG11       0.2100
@<TRIPOS>BOND
     1    89    34    1
     2    88    34    1
     3    34    87    1
     4    34    33    1
     5    86    33    1
     6    33    17    1
     7    33    35    1
     8    68    17    1
     9    90    35    1
    10    17    69    1
    11    17    12    1
    12    35    91    1
    13    35    92    1
    14    58    12    1
    15    12    11    1
    16    12    57    1
    17    55    11    1
    18    11    56    1
    19    11    32    1
    20    32    85    1
    21    32    84    1
    22    32     7    1
    23    45     7    1
    24    44     7    1
    25     7    43    1
    26    80    28    1
    27    81    29    1
    28    41     6    1
    29    28    29   ar
    30    28    27   ar
    31    29    30   ar
    32    40     5    1
    33    79    27    1
    34    27    26   ar
    35    43     6    1
    36    43     1   am
    37    70    18    1
    38     6     5    1
    39     6    25    1
    40    30    82    1
    41    30    31   ar
    42    94    50    1
    43    50     5    1
    44     5     4    1
    45    26    31   ar
    46    26    25    1
    47    76    24    1
    48    31    83    1
    49    48     1    2
    50    71    18    1
    51     1    42   am
    52    18    19    1
    53    18     3    1
    54    25    78    1
    55    25    77    1
    56    24    19   ar
    57    24    23   ar
    58    75    23    1
    59    19    20   ar
    60    23    22   ar
    61     4     3    1
    62     4    49    1
    63     4    39    1
    64     3    42    1
    65     3    38    1
    66    42     2    1
    67    49    93    1
    68    20    72    1
    69    20    21   ar
    70    22    74    1
    71    22    21   ar
    72    21    73    1
    73    36     2    1
    74     2    37    1
    75     2     8    1
    76    46     8    1
    77     8    47    1
    78     8    10    1
    79    54    10    1
    80    10    53    1
    81    10    14    1
    82    60    14    1
    83    66    16    1
    84    61    14    1
    85    14     9    1
    86    59    13    1
    87    16    67    1
    88    16    65    1
    89    16    13    1
    90     9    52    1
    91     9    13    1
    92     9    51    1
    93    13    15    1
    94    15    64    1
    95    15    62    1
    96    15    63    1
