@<TRIPOS>MOLECULE
Mol_111
 96 101 0 0 0
SMALL
GASTEIGER
Energy = 0

@<TRIPOS>ATOM
      1 C           2.7769   -5.0493    0.0890 C.2     1  LIG11       0.3060
      2 C           3.5324   -4.9362   -2.2112 C.3     1  LIG11       0.0416
      3 C           2.9206   -2.8147   -0.9427 C.3     1  LIG11       0.0601
      4 C           1.5441   -2.1601   -0.6666 C.3     1  LIG11       0.1016
      5 C           1.0441   -2.4357    0.7763 C.3     1  LIG11       0.1016
      6 C           0.7727   -3.9394    1.0126 C.3     1  LIG11       0.0601
      7 C           2.1647   -5.5701    2.3753 C.3     1  LIG11       0.0418
      8 C           2.8741   -4.5219   -3.5397 C.ar    1  LIG11      -0.0293
      9 C           3.6493   -4.0261   -4.5917 C.ar    1  LIG11      -0.0449
     10 C           3.0585   -3.7162   -5.8236 C.ar    1  LIG11       0.0374
     11 C           1.6709   -3.7867   -5.9755 C.ar    1  LIG11      -0.0496
     12 C           0.8824   -4.2427   -4.9205 C.ar    1  LIG11      -0.0607
     13 C           1.4945   -4.6546   -3.7350 C.ar    1  LIG11      -0.0570
     14 C           3.8861   -3.3097   -7.0202 C.2     1  LIG11       0.2493
     15 H           6.5371   -1.6397  -11.0211 H       1  LIG11       0.0622
     16 C           5.9667   -3.5924   -8.3061 C.ar    1  LIG11       0.1251
     17 N           7.0123   -4.4336   -8.4324 N.ar    1  LIG11      -0.2399
     18 C           4.0423   -2.2820    0.0000 C.3     1  LIG11      -0.0064
     19 C           5.4497   -2.5220   -0.5728 C.ar    1  LIG11      -0.0455
     20 C           6.0490   -1.5718   -1.4094 C.ar    1  LIG11      -0.0585
     21 C           7.3397   -1.7766   -1.9073 C.ar    1  LIG11      -0.0615
     22 C           8.0400   -2.9399   -1.5773 C.ar    1  LIG11      -0.0617
     23 C           7.4445   -3.8965   -0.7508 C.ar    1  LIG11      -0.0615
     24 C           6.1546   -3.6884   -0.2533 C.ar    1  LIG11      -0.0585
     25 C          -0.2418   -4.5564    0.0135 C.3     1  LIG11      -0.0064
     26 C          -0.8741   -5.8674    0.5037 C.ar    1  LIG11      -0.0455
     27 C          -0.3243   -7.1073    0.1552 C.ar    1  LIG11      -0.0585
     28 C          -0.9337   -8.2931    0.5767 C.ar    1  LIG11      -0.0615
     29 C          -2.0897   -8.2464    1.3607 C.ar    1  LIG11      -0.0617
     30 C          -2.6370   -7.0115    1.7189 C.ar    1  LIG11      -0.0615
     31 C          -2.0292   -5.8272    1.2925 C.ar    1  LIG11      -0.0585
     32 C           1.9602   -4.6946    3.6180 C.ar    1  LIG11      -0.0231
     33 C           0.8032   -4.8200    4.3916 C.ar    1  LIG11      -0.0150
     34 C           0.6407   -4.0553    5.5475 C.ar    1  LIG11       0.1239
     35 C           1.6166   -3.1271    5.9204 C.ar    1  LIG11       0.0218
     36 C           2.7612   -2.9602    5.1271 C.ar    1  LIG11       0.1239
     37 C           2.9272   -3.7555    3.9896 C.ar    1  LIG11      -0.0150
     38 O          -0.5087   -4.2231    6.3194 O.3     1  LIG11      -0.4950
     39 C          -0.5134   -5.4155    7.1231 C.3     1  LIG11       0.0788
     40 O           3.7556   -2.0196    5.4298 O.3     1  LIG11      -0.4950
     41 C           3.6490   -1.1471    6.5646 C.3     1  LIG11       0.0788
     42 N           2.9594   -4.2813   -1.0237 N.am    1  LIG11      -0.2752
     43 N           1.9705   -4.7770    1.1544 N.am    1  LIG11      -0.2752
     44 N           5.1083   -3.8567   -7.2067 N.am    1  LIG11      -0.2664
     45 C           7.8926   -4.3274   -9.4465 C.ar    1  LIG11       0.0326
     46 H           3.4203   -6.0320   -2.2008 H       1  LIG11       0.0514
     47 H           4.6114   -4.7224   -2.2268 H       1  LIG11       0.0514
     48 O           3.4031   -6.0955    0.1346 O.2     1  LIG11      -0.2524
     49 O           1.6757   -0.7439   -0.9085 O.3     1  LIG11      -0.3873
     50 O          -0.1814   -1.7244    1.0488 O.3     1  LIG11      -0.3873
     51 O           3.3614   -2.5087   -7.7740 O.2     1  LIG11      -0.2698
     52 H           3.1890   -2.4134   -1.9359 H       1  LIG11       0.0531
     53 C           7.7429   -3.3222  -10.4070 C.ar    1  LIG11      -0.0322
     54 H           0.8348   -2.5544   -1.4131 H       1  LIG11       0.0638
     55 C           6.6758   -2.4277  -10.2876 C.ar    1  LIG11      -0.0542
     56 C           5.7866   -2.5437   -9.2183 C.ar    1  LIG11      -0.0213
     57 H           1.7901   -2.1214    1.5255 H       1  LIG11       0.0638
     58 H           0.2078   -3.9449    1.9578 H       1  LIG11       0.0531
     59 H           3.1790   -5.9898    2.4752 H       1  LIG11       0.0514
     60 H           1.4574   -6.4138    2.3657 H       1  LIG11       0.0514
     61 H           4.7148   -3.8836   -4.4499 H       1  LIG11       0.0628
     62 H           1.2043   -3.5003   -6.9135 H       1  LIG11       0.0625
     63 H          -0.1976   -4.2859   -5.0282 H       1  LIG11       0.0618
     64 H           0.8780   -5.0965   -2.9740 H       1  LIG11       0.0621
     65 H           9.3490   -2.2972  -11.3987 H       1  LIG11       0.0278
     66 H           8.1580   -3.0487  -12.5116 H       1  LIG11       0.0278
     67 H           3.9847   -2.7682    0.9837 H       1  LIG11       0.0332
     68 H           3.9261   -1.1986    0.1626 H       1  LIG11       0.0332
     69 H           5.5161   -0.6644   -1.6759 H       1  LIG11       0.0620
     70 H           7.8008   -1.0319   -2.5497 H       1  LIG11       0.0618
     71 H           9.0434   -3.0998   -1.9611 H       1  LIG11       0.0618
     72 H           7.9853   -4.8024   -0.4943 H       1  LIG11       0.0618
     73 H           5.7022   -4.4411    0.3845 H       1  LIG11       0.0620
     74 H           0.2880   -4.7802   -0.9076 H       1  LIG11       0.0332
     75 H          -1.0481   -3.8447   -0.2251 H       1  LIG11       0.0332
     76 H           0.5772   -7.1584   -0.4479 H       1  LIG11       0.0620
     77 H          -0.5099   -9.2523    0.2942 H       1  LIG11       0.0618
     78 H          -2.5619   -9.1669    1.6906 H       1  LIG11       0.0618
     79 H          -3.5356   -6.9720    2.3271 H       1  LIG11       0.0618
     80 H          -2.4630   -4.8729    1.5739 H       1  LIG11       0.0620
     81 H           0.0166   -5.5070    4.0990 H       1  LIG11       0.0657
     82 H           1.4553   -2.5558    6.8256 H       1  LIG11       0.0691
     83 H           3.8236   -3.6354    3.3910 H       1  LIG11       0.0657
     84 H           0.1673   -5.2945    7.9792 H       1  LIG11       0.0660
     85 H          -0.2180   -6.3088    6.5498 H       1  LIG11       0.0660
     86 H          -1.5354   -5.5691    7.4994 H       1  LIG11       0.0660
     87 H           2.7530   -0.5124    6.4867 H       1  LIG11       0.0660
     88 H           4.5362   -0.4972    6.5759 H       1  LIG11       0.0660
     89 H           3.6293   -1.7249    7.5012 H       1  LIG11       0.0660
     90 H           5.4282   -4.5580   -6.5735 H       1  LIG11       0.1566
     91 H           8.7145   -5.0324   -9.5007 H       1  LIG11       0.0833
     92 H           0.8433   -0.2818   -0.9400 H       1  LIG11       0.2100
     93 H          -0.0646   -0.7836    1.1389 H       1  LIG11       0.2100
     94 C           8.7200   -3.1822  -11.5751 C.3     1  LIG11      -0.0383
     95 H           4.9994   -1.8090   -9.1374 H       1  LIG11       0.0652
     96 H           9.3631   -4.0691  -11.6724 H       1  LIG11       0.0278
@<TRIPOS>BOND
     1    66    94    1
     2    96    94    1
     3    94    65    1
     4    94    53    1
     5    15    55    1
     6    53    55   ar
     7    53    45   ar
     8    55    56   ar
     9    91    45    1
    10    45    17   ar
    11    56    95    1
    12    56    16   ar
    13    17    16   ar
    14    16    44    1
    15    51    14    2
    16    44    14   am
    17    44    90    1
    18    14    10    1
    19    62    11    1
    20    11    10   ar
    21    11    12   ar
    22    10     9   ar
    23    63    12    1
    24    12    13   ar
    25     9    61    1
    26     9     8   ar
    27    13     8   ar
    28    13    64    1
    29     8     2    1
    30    70    21    1
    31    47     2    1
    32     2    46    1
    33     2    42    1
    34    71    22    1
    35    52     3    1
    36    21    22   ar
    37    21    20   ar
    38    69    20    1
    39    22    23   ar
    40    54     4    1
    41    20    19   ar
    42    42     3    1
    43    42     1   am
    44     3     4    1
    45     3    18    1
    46    92    49    1
    47    49     4    1
    48    74    25    1
    49    23    72    1
    50    23    24   ar
    51     4     5    1
    52    19    24   ar
    53    19    18    1
    54    76    27    1
    55    24    73    1
    56    75    25    1
    57    18    68    1
    58    18    67    1
    59    25    26    1
    60    25     6    1
    61     1    48    2
    62     1    43   am
    63    27    26   ar
    64    27    28   ar
    65    77    28    1
    66    26    31   ar
    67    28    29   ar
    68     5     6    1
    69     5    50    1
    70     5    57    1
    71     6    43    1
    72     6    58    1
    73    50    93    1
    74    43     7    1
    75    31    80    1
    76    31    30   ar
    77    29    78    1
    78    29    30   ar
    79    30    79    1
    80    60     7    1
    81     7    59    1
    82     7    32    1
    83    83    37    1
    84    32    37   ar
    85    32    33   ar
    86    37    36   ar
    87    81    33    1
    88    33    34   ar
    89    36    40    1
    90    36    35   ar
    91    40    41    1
    92    34    35   ar
    93    34    38    1
    94    35    82    1
    95    38    39    1
    96    87    41    1
    97    85    39    1
    98    41    88    1
    99    41    89    1
   100    39    86    1
   101    39    84    1
