@<TRIPOS>MOLECULE
Mol_98
 98 104 0 0 0
SMALL
GASTEIGER
Energy = 0

@<TRIPOS>ATOM
      1 C           2.8146   -4.8592    0.1362 C.2     1  LIG11       0.3060
      2 C           2.3920   -5.3712    2.4523 C.3     1  LIG11       0.0416
      3 C           0.8805   -3.7553    1.1946 C.3     1  LIG11       0.0601
      4 C           1.0779   -2.2486    0.9021 C.3     1  LIG11       0.1016
      5 C           1.5226   -1.9901   -0.5625 C.3     1  LIG11       0.1016
      6 C           2.9008   -2.6222   -0.8867 C.3     1  LIG11       0.0601
      7 C           3.4836   -4.7327   -2.1868 C.3     1  LIG11       0.0416
      8 C           2.2478   -4.6038    3.7742 C.ar    1  LIG11      -0.0293
      9 C           1.4659   -5.1408    4.7985 C.ar    1  LIG11      -0.0449
     10 C           1.4072   -4.5039    6.0408 C.ar    1  LIG11       0.0374
     11 C           2.0084   -3.2566    6.2283 C.ar    1  LIG11      -0.0496
     12 C           2.7543   -2.6911    5.1939 C.ar    1  LIG11      -0.0607
     13 C           2.8966   -3.3809    3.9863 C.ar    1  LIG11      -0.0570
     14 C           0.7025   -5.1649    7.1980 C.2     1  LIG11       0.2497
     15 C           5.5339   -3.0409   -8.1604 C.ar    1  LIG11       0.1648
     16 S           6.2774   -1.4392   -8.0133 S.2     1  LIG11      -0.0602
     17 C           7.0488   -1.8103   -9.6054 C.ar    1  LIG11      -0.0001
     18 C          -0.1917   -4.4159    0.2804 C.3     1  LIG11      -0.0064
     19 C          -0.7226   -5.7429    0.8462 C.ar    1  LIG11      -0.0455
     20 C          -1.8012   -5.7455    1.7389 C.ar    1  LIG11      -0.0585
     21 C          -2.3260   -6.9510    2.2146 C.ar    1  LIG11      -0.0615
     22 C          -1.7651   -8.1653    1.8103 C.ar    1  LIG11      -0.0617
     23 C          -0.6737   -8.1690    0.9374 C.ar    1  LIG11      -0.0615
     24 C          -0.1501   -6.9620    0.4640 C.ar    1  LIG11      -0.0585
     25 C           4.0477   -2.0917    0.0245 C.3     1  LIG11      -0.0064
     26 C           5.4456   -2.3999   -0.5359 C.ar    1  LIG11      -0.0455
     27 C           6.0684   -1.4964   -1.4049 C.ar    1  LIG11      -0.0585
     28 C           7.3415   -1.7658   -1.9160 C.ar    1  LIG11      -0.0615
     29 C           8.0024   -2.9451   -1.5620 C.ar    1  LIG11      -0.0617
     30 C           7.3908   -3.8471   -0.6873 C.ar    1  LIG11      -0.0615
     31 C           6.1185   -3.5742   -0.1758 C.ar    1  LIG11      -0.0585
     32 C           2.7362   -4.3562   -3.4752 C.ar    1  LIG11      -0.0293
     33 C           3.4138   -3.7164   -4.5141 C.ar    1  LIG11      -0.0449
     34 C           2.7684   -3.4555   -5.7271 C.ar    1  LIG11       0.0374
     35 C           1.4035   -3.7242   -5.8719 C.ar    1  LIG11      -0.0496
     36 C           0.7110   -4.3362   -4.8258 C.ar    1  LIG11      -0.0607
     37 C           1.3820   -4.6710   -3.6443 C.ar    1  LIG11      -0.0570
     38 C           3.5844   -2.9022   -6.8670 C.2     1  LIG11       0.2497
     39 C           6.6686   -2.9782  -10.1421 C.ar    1  LIG11       0.0475
     40 N           5.8171   -3.6692   -9.2143 N.ar    1  LIG11      -0.2298
     41 C           7.0200   -3.5364  -11.4913 C.3     1  LIG11      -0.0218
     42 N           2.1003   -4.5687    1.2584 N.am    1  LIG11      -0.2752
     43 N           2.9497   -4.0868   -0.9774 N.am    1  LIG11      -0.2752
     44 N           0.8131   -6.4960    7.3862 N.am    1  LIG11      -0.2607
     45 C           0.2206   -7.1459    8.4007 C.ar    1  LIG11       0.1648
     46 N           4.7518   -3.4975   -7.1764 N.am    1  LIG11      -0.2607
     47 S          -1.1884   -6.4449    9.2325 S.2     1  LIG11      -0.0602
     48 O           3.3998   -5.9299    0.1356 O.2     1  LIG11      -0.2524
     49 O          -0.1735   -1.5938    1.1997 O.3     1  LIG11      -0.3873
     50 O           1.6181   -0.5747   -0.8239 O.3     1  LIG11      -0.3873
     51 O           0.0918   -4.4318    7.9572 O.2     1  LIG11      -0.2698
     52 O           3.1426   -1.9592   -7.5053 O.2     1  LIG11      -0.2698
     53 C          -1.1233   -7.8874   10.2981 C.ar    1  LIG11      -0.0001
     54 C          -0.1293   -8.7365   10.0075 C.ar    1  LIG11       0.0475
     55 N           0.5937   -8.2589    8.8603 N.ar    1  LIG11      -0.2298
     56 C           0.2350   -9.9901   10.7457 C.3     1  LIG11      -0.0218
     57 H           3.4303   -5.7393    2.4807 H       1  LIG11       0.0514
     58 H           1.7291   -6.2497    2.4275 H       1  LIG11       0.0514
     59 H           0.4082   -3.7593    2.1921 H       1  LIG11       0.0531
     60 H           1.8297   -1.8653    1.6106 H       1  LIG11       0.0638
     61 H           0.7939   -2.4118   -1.2744 H       1  LIG11       0.0638
     62 H           3.1403   -2.2126   -1.8837 H       1  LIG11       0.0531
     63 H           3.4188   -5.8319   -2.1725 H       1  LIG11       0.0514
     64 H           4.5513   -4.4777   -2.2641 H       1  LIG11       0.0514
     65 H           0.9015   -6.0530    4.6365 H       1  LIG11       0.0628
     66 H           1.9050   -2.7360    7.1762 H       1  LIG11       0.0625
     67 H           3.2261   -1.7229    5.3349 H       1  LIG11       0.0618
     68 H           3.5249   -2.9576    3.2179 H       1  LIG11       0.0621
     69 H           7.7492   -1.1257  -10.0800 H       1  LIG11       0.0712
     70 H           0.2330   -4.6150   -0.7080 H       1  LIG11       0.0332
     71 H          -1.0503   -3.7403    0.1384 H       1  LIG11       0.0332
     72 H          -2.2418   -4.8085    2.0649 H       1  LIG11       0.0620
     73 H          -3.1710   -6.9454    2.8969 H       1  LIG11       0.0618
     74 H          -2.1763   -9.1028    2.1730 H       1  LIG11       0.0618
     75 H          -0.2335   -9.1114    0.6258 H       1  LIG11       0.0618
     76 H           0.7042   -6.9788   -0.2055 H       1  LIG11       0.0620
     77 H           3.9904   -2.5557    1.0130 H       1  LIG11       0.0332
     78 H           3.9588   -1.0024    0.1645 H       1  LIG11       0.0332
     79 H           5.5667   -0.5758   -1.6855 H       1  LIG11       0.0620
     80 H           7.8187   -1.0583   -2.5875 H       1  LIG11       0.0618
     81 H           8.9880   -3.1591   -1.9647 H       1  LIG11       0.0618
     82 H           7.9059   -4.7605   -0.4048 H       1  LIG11       0.0618
     83 H           5.6579   -4.2834    0.5048 H       1  LIG11       0.0620
     84 H           4.4505   -3.4194   -4.3939 H       1  LIG11       0.0628
     85 H           0.8926   -3.4698   -6.7962 H       1  LIG11       0.0625
     86 H          -0.3469   -4.5598   -4.9341 H       1  LIG11       0.0618
     87 H           0.8453   -5.1902   -2.8624 H       1  LIG11       0.0621
     88 H           7.6444   -2.8323  -12.0605 H       1  LIG11       0.0293
     89 H           6.0851   -3.7069  -12.0484 H       1  LIG11       0.0293
     90 H           7.5483   -4.4925  -11.3773 H       1  LIG11       0.0293
     91 H           1.4389   -7.0358    6.8256 H       1  LIG11       0.1571
     92 H           4.9734   -4.3902   -6.7929 H       1  LIG11       0.1571
     93 H          -0.1122   -0.6452    1.2563 H       1  LIG11       0.2100
     94 H           0.7768   -0.1281   -0.8241 H       1  LIG11       0.2100
     95 H          -1.8367   -8.0231   11.1075 H       1  LIG11       0.0712
     96 H           0.4286  -10.8043   10.0336 H       1  LIG11       0.0293
     97 H          -0.5691  -10.2848   11.4354 H       1  LIG11       0.0293
     98 H           1.1497   -9.7923   11.3256 H       1  LIG11       0.0293
@<TRIPOS>BOND
     1    88    41    1
     2    89    41    1
     3    41    90    1
     4    41    39    1
     5    39    17   ar
     6    39    40   ar
     7    69    17    1
     8    17    16   ar
     9    40    15   ar
    10    15    16   ar
    11    15    46    1
    12    52    38    2
    13    46    38   am
    14    46    92    1
    15    38    34    1
    16    85    35    1
    17    35    34   ar
    18    35    36   ar
    19    34    33   ar
    20    86    36    1
    21    36    37   ar
    22    33    84    1
    23    33    32   ar
    24    37    32   ar
    25    37    87    1
    26    32     7    1
    27    80    28    1
    28    64     7    1
    29     7    63    1
    30     7    43    1
    31    81    29    1
    32    28    29   ar
    33    28    27   ar
    34    62     6    1
    35    79    27    1
    36    29    30   ar
    37    27    26   ar
    38    61     5    1
    39    43     6    1
    40    43     1   am
    41     6     5    1
    42     6    25    1
    43    94    50    1
    44    50     5    1
    45    70    18    1
    46    30    82    1
    47    30    31   ar
    48     5     4    1
    49    26    31   ar
    50    26    25    1
    51    76    24    1
    52    31    83    1
    53    25    78    1
    54    25    77    1
    55    48     1    2
    56     1    42   am
    57    71    18    1
    58    18    19    1
    59    18     3    1
    60    24    19   ar
    61    24    23   ar
    62    75    23    1
    63    19    20   ar
    64     4     3    1
    65     4    49    1
    66     4    60    1
    67    23    22   ar
    68     3    42    1
    69     3    59    1
    70    49    93    1
    71    42     2    1
    72    20    72    1
    73    20    21   ar
    74    22    74    1
    75    22    21   ar
    76    21    73    1
    77    58     2    1
    78     2    57    1
    79     2     8    1
    80    68    13    1
    81     8    13   ar
    82     8     9   ar
    83    13    12   ar
    84    65     9    1
    85     9    10   ar
    86    12    67    1
    87    12    11   ar
    88    10    11   ar
    89    10    14    1
    90    11    66    1
    91    91    44    1
    92    14    44   am
    93    14    51    2
    94    44    45    1
    95    45    55   ar
    96    45    47   ar
    97    55    54   ar
    98    47    53   ar
    99    54    53   ar
   100    54    56    1
   101    96    56    1
   102    53    95    1
   103    56    98    1
   104    56    97    1
