@<TRIPOS>MOLECULE
Mol_41
 74 78 0 0 0
SMALL
GASTEIGER
Energy = 0

@<TRIPOS>ATOM
      1 C           2.8035   -4.7616    0.0127 C.2     1  LIG11       0.3060
      2 C           3.5295   -4.6340   -2.3032 C.3     1  LIG11       0.0417
      3 C           2.9390   -2.5172   -1.0002 C.3     1  LIG11       0.0601
      4 C           1.5369   -1.8977   -0.7528 C.3     1  LIG11       0.1016
      5 C           0.9920   -2.1840    0.6694 C.3     1  LIG11       0.1016
      6 C           0.8010   -3.6908    0.9562 C.3     1  LIG11       0.0601
      7 C           2.2790   -5.2117    2.3553 C.3     1  LIG11       0.0417
      8 C           2.8750   -4.1941   -3.6264 C.ar    1  LIG11      -0.0266
      9 C           1.5324   -4.4919   -3.8856 C.ar    1  LIG11      -0.0568
     10 C           0.9326   -4.1090   -5.0898 C.ar    1  LIG11      -0.0580
     11 C           1.6874   -3.4557   -6.0656 C.ar    1  LIG11      -0.0202
     12 C           3.0308   -3.1558   -5.8239 C.ar    1  LIG11       0.1172
     13 C           3.6153   -3.5158   -4.6043 C.ar    1  LIG11      -0.0155
     14 O           0.7429   -3.2106    6.6492 O.3     1  LIG11      -0.5068
     15 H           3.4011   -5.7288   -2.3037 H       1  LIG11       0.0514
     16 H           4.6123   -4.4420   -2.3298 H       1  LIG11       0.0514
     17 H           0.6081   -4.0468    7.0819 H       1  LIG11       0.2921
     18 C           4.0245   -1.9990   -0.0056 C.3     1  LIG11      -0.0064
     19 C           5.4626   -2.2401   -0.4906 C.ar    1  LIG11      -0.0455
     20 C           6.1689   -1.2375   -1.1686 C.ar    1  LIG11      -0.0585
     21 C           7.4921   -1.4481   -1.5684 C.ar    1  LIG11      -0.0615
     22 C           8.1139   -2.6717   -1.3073 C.ar    1  LIG11      -0.0617
     23 C           7.4106   -3.6801   -0.6428 C.ar    1  LIG11      -0.0615
     24 C           6.0914   -3.4634   -0.2354 C.ar    1  LIG11      -0.0585
     25 C          -0.2023   -4.3860   -0.0111 C.3     1  LIG11      -0.0064
     26 C          -0.7202   -5.7337    0.5249 C.ar    1  LIG11      -0.0455
     27 C          -1.8767   -5.7838    1.3134 C.ar    1  LIG11      -0.0585
     28 C          -2.3821   -7.0084    1.7619 C.ar    1  LIG11      -0.0615
     29 C          -1.7244   -8.1977    1.4373 C.ar    1  LIG11      -0.0617
     30 C          -0.5598   -8.1553    0.6660 C.ar    1  LIG11      -0.0615
     31 C          -0.0577   -6.9289    0.2186 C.ar    1  LIG11      -0.0585
     32 C           2.5017   -4.2956    3.5748 C.ar    1  LIG11      -0.0266
     33 C           3.7379   -3.6665    3.7707 C.ar    1  LIG11      -0.0568
     34 C           3.9608   -2.8574    4.8906 C.ar    1  LIG11      -0.0580
     35 C           2.9502   -2.6830    5.8388 C.ar    1  LIG11      -0.0202
     36 C           1.7246   -3.3309    5.6694 C.ar    1  LIG11       0.1172
     37 C           1.4903   -4.0991    4.5247 C.ar    1  LIG11      -0.0155
     38 H           3.2370   -2.1010   -1.9784 H       1  LIG11       0.0531
     39 H           0.8533   -2.3064   -1.5134 H       1  LIG11       0.0638
     40 H           1.6871   -1.7925    1.4302 H       1  LIG11       0.0638
     41 H           0.2762   -3.6897    1.9267 H       1  LIG11       0.0531
     42 N           2.9770   -3.9852   -1.0984 N.am    1  LIG11      -0.2752
     43 N           2.0327   -4.4737    1.1025 N.am    1  LIG11      -0.2752
     44 H           3.1697   -5.8582    2.3277 H       1  LIG11       0.0514
     45 H           1.4219   -5.8780    2.5379 H       1  LIG11       0.0514
     46 H           0.9453   -5.0356   -3.1570 H       1  LIG11       0.0621
     47 H          -0.1173   -4.3216   -5.2701 H       1  LIG11       0.0619
     48 O           3.4016   -5.8247    0.0304 O.2     1  LIG11      -0.2524
     49 O           1.5147   -0.4743   -0.9952 O.3     1  LIG11      -0.3873
     50 O          -0.2784   -1.5281    0.8565 O.3     1  LIG11      -0.3873
     51 H           1.2373   -3.1775   -7.0132 H       1  LIG11       0.0654
     52 H           4.6564   -3.2734   -4.4223 H       1  LIG11       0.0657
     53 H           3.9082   -2.4777    0.9757 H       1  LIG11       0.0332
     54 H           3.9395   -0.9165    0.1554 H       1  LIG11       0.0332
     55 H           5.6991   -0.2830   -1.3858 H       1  LIG11       0.0620
     56 H           8.0386   -0.6610   -2.0801 H       1  LIG11       0.0618
     57 H           9.1406   -2.8383   -1.6191 H       1  LIG11       0.0618
     58 H           7.8898   -4.6328   -0.4406 H       1  LIG11       0.0618
     59 H           5.5580   -4.2515    0.2849 H       1  LIG11       0.0620
     60 H           0.2777   -4.5658   -0.9785 H       1  LIG11       0.0332
     61 H          -1.0715   -3.7346   -0.1948 H       1  LIG11       0.0332
     62 H          -2.3949   -4.8683    1.5799 H       1  LIG11       0.0620
     63 H          -3.2872   -7.0379    2.3616 H       1  LIG11       0.0618
     64 H          -2.1168   -9.1500    1.7827 H       1  LIG11       0.0618
     65 H          -0.0463   -9.0783    0.4134 H       1  LIG11       0.0618
     66 H           0.8515   -6.9125   -0.3736 H       1  LIG11       0.0620
     67 H           4.5408   -3.8108    3.0550 H       1  LIG11       0.0621
     68 H           4.9199   -2.3667    5.0298 H       1  LIG11       0.0619
     69 H           3.1106   -2.0521    6.7077 H       1  LIG11       0.0654
     70 H           0.5129   -4.5479    4.3870 H       1  LIG11       0.0657
     71 H           1.9557    0.0549   -0.3394 H       1  LIG11       0.2100
     72 H          -0.2238   -0.5802    0.7734 H       1  LIG11       0.2100
     73 H           4.4444   -1.9364   -6.4566 H       1  LIG11       0.2921
     74 O           3.7694   -2.5029   -6.8123 O.3     1  LIG11      -0.5068
@<TRIPOS>BOND
     1    51    11    1
     2    74    73    1
     3    74    12    1
     4    11    12   ar
     5    11    10   ar
     6    12    13   ar
     7    47    10    1
     8    10     9   ar
     9    13    52    1
    10    13     8   ar
    11     9     8   ar
    12     9    46    1
    13     8     2    1
    14    16     2    1
    15    15     2    1
    16     2    42    1
    17    56    21    1
    18    38     3    1
    19    57    22    1
    20    21    22   ar
    21    21    20   ar
    22    39     4    1
    23    55    20    1
    24    22    23   ar
    25    20    19   ar
    26    42     3    1
    27    42     1   am
    28     3     4    1
    29     3    18    1
    30    49     4    1
    31    49    71    1
    32    60    25    1
    33     4     5    1
    34    23    58    1
    35    23    24   ar
    36    19    24   ar
    37    19    18    1
    38    66    31    1
    39    24    59    1
    40    61    25    1
    41    25    26    1
    42    25     6    1
    43    18    54    1
    44    18    53    1
    45     1    48    2
    46     1    43   am
    47    31    26   ar
    48    31    30   ar
    49    65    30    1
    50    26    27   ar
    51    30    29   ar
    52     5    50    1
    53     5     6    1
    54     5    40    1
    55    72    50    1
    56     6    43    1
    57     6    41    1
    58    43     7    1
    59    27    62    1
    60    27    28   ar
    61    29    28   ar
    62    29    64    1
    63    28    63    1
    64    44     7    1
    65     7    45    1
    66     7    32    1
    67    67    33    1
    68    32    33   ar
    69    32    37   ar
    70    33    34   ar
    71    70    37    1
    72    37    36   ar
    73    34    68    1
    74    34    35   ar
    75    36    35   ar
    76    36    14    1
    77    35    69    1
    78    14    17    1
