@<TRIPOS>MOLECULE
Mol_38
 72 76 0 0 0
SMALL
GASTEIGER
Energy = 0

@<TRIPOS>ATOM
      1 C           2.9653   -5.0197   -0.0131 C.2     1  LIG11       0.3060
      2 C           2.4215   -5.5342    2.3143 C.3     1  LIG11       0.0416
      3 C           0.9729   -3.9477    0.9675 C.3     1  LIG11       0.0601
      4 C           1.1898   -2.4384    0.7115 C.3     1  LIG11       0.1016
      5 C           1.6999   -2.1489   -0.7266 C.3     1  LIG11       0.1016
      6 C           3.0956   -2.7643   -1.0002 C.3     1  LIG11       0.0601
      7 C           3.6620   -4.8469   -2.3463 C.3     1  LIG11       0.0416
      8 C           2.5119   -4.6658    3.5857 C.ar    1  LIG11      -0.0291
      9 C           3.5604   -3.7520    3.7425 C.ar    1  LIG11      -0.0570
     10 C           3.6493   -2.9411    4.8785 C.ar    1  LIG11      -0.0605
     11 C           2.7255   -3.0926    5.9143 C.ar    1  LIG11      -0.0486
     12 C           1.6967   -4.0302    5.7891 C.ar    1  LIG11       0.0137
     13 C           1.5735   -4.7869    4.6194 C.ar    1  LIG11      -0.0439
     14 I           0.3696   -4.2975    7.3323 I       1  LIG11      -0.0438
     15 H           3.3626   -6.1056    2.3094 H       1  LIG11       0.0514
     16 H           1.6038   -6.2659    2.4060 H       1  LIG11       0.0514
     17 I           4.1426   -2.6756   -7.4413 I       1  LIG11      -0.0438
     18 C          -0.0427   -4.5929   -0.0192 C.3     1  LIG11      -0.0064
     19 C          -0.7320   -5.8535    0.5257 C.ar    1  LIG11      -0.0455
     20 C          -1.9083   -5.7322    1.2750 C.ar    1  LIG11      -0.0585
     21 C          -2.5654   -6.8695    1.7528 C.ar    1  LIG11      -0.0615
     22 C          -2.0481   -8.1398    1.4847 C.ar    1  LIG11      -0.0617
     23 C          -0.8736   -8.2680    0.7386 C.ar    1  LIG11      -0.0615
     24 C          -0.2147   -7.1284    0.2660 C.ar    1  LIG11      -0.0585
     25 C           4.1989   -2.2432   -0.0315 C.3     1  LIG11      -0.0064
     26 C           5.6337   -2.4157   -0.5657 C.ar    1  LIG11      -0.0455
     27 C           6.2838   -3.6527   -0.4851 C.ar    1  LIG11      -0.0585
     28 C           7.5878   -3.8061   -0.9687 C.ar    1  LIG11      -0.0615
     29 C           8.2648   -2.7145   -1.5172 C.ar    1  LIG11      -0.0617
     30 C           7.6286   -1.4721   -1.5900 C.ar    1  LIG11      -0.0615
     31 C           6.3189   -1.3278   -1.1236 C.ar    1  LIG11      -0.0585
     32 C           2.9638   -4.3852   -3.6415 C.ar    1  LIG11      -0.0291
     33 C           1.5838   -4.5511   -3.8029 C.ar    1  LIG11      -0.0570
     34 C           0.9237   -4.0987   -4.9479 C.ar    1  LIG11      -0.0605
     35 C           1.6612   -3.5509   -5.9988 C.ar    1  LIG11      -0.0486
     36 C           3.0475   -3.4266   -5.8765 C.ar    1  LIG11       0.0137
     37 C           3.6891   -3.8152   -4.6956 C.ar    1  LIG11      -0.0439
     38 H           0.4492   -3.9689    1.9392 H       1  LIG11       0.0531
     39 H           1.9132   -2.0820    1.4638 H       1  LIG11       0.0638
     40 H           1.0103   -2.5666   -1.4793 H       1  LIG11       0.0638
     41 H           3.3806   -2.3328   -1.9760 H       1  LIG11       0.0531
     42 N           2.1937   -4.7530    1.0850 N.am    1  LIG11      -0.2752
     43 N           3.1320   -4.2274   -1.1163 N.am    1  LIG11      -0.2752
     44 H           3.5557   -5.9430   -2.3584 H       1  LIG11       0.0514
     45 H           4.7373   -4.6270   -2.4088 H       1  LIG11       0.0514
     46 H           4.3281   -3.6742    2.9857 H       1  LIG11       0.0621
     47 H           4.4388   -2.1993    4.9603 H       1  LIG11       0.0618
     48 O           3.5692   -6.0794   -0.0122 O.2     1  LIG11      -0.2524
     49 O          -0.0773   -1.7933    0.9607 O.3     1  LIG11      -0.3873
     50 O           1.7991   -0.7281   -0.9560 O.3     1  LIG11      -0.3873
     51 H           2.8089   -2.4881    6.8124 H       1  LIG11       0.0628
     52 H           0.7438   -5.4786    4.5265 H       1  LIG11       0.0631
     53 H           0.4928   -4.8802   -0.9220 H       1  LIG11       0.0332
     54 H          -0.8286   -3.8791   -0.3132 H       1  LIG11       0.0332
     55 H          -2.3207   -4.7505    1.4854 H       1  LIG11       0.0620
     56 H          -3.4786   -6.7667    2.3313 H       1  LIG11       0.0618
     57 H          -2.5582   -9.0240    1.8553 H       1  LIG11       0.0618
     58 H          -0.4738   -9.2549    0.5251 H       1  LIG11       0.0618
     59 H           0.7001   -7.2424   -0.3078 H       1  LIG11       0.0620
     60 H           4.1372   -2.7895    0.9122 H       1  LIG11       0.0332
     61 H           4.0351   -1.1787    0.1982 H       1  LIG11       0.0332
     62 H           5.7798   -4.5061   -0.0438 H       1  LIG11       0.0620
     63 H           8.0768   -4.7744   -0.9170 H       1  LIG11       0.0618
     64 H           9.2806   -2.8291   -1.8846 H       1  LIG11       0.0618
     65 H           8.1547   -0.6192   -2.0087 H       1  LIG11       0.0618
     66 H           5.8389   -0.3571   -1.1947 H       1  LIG11       0.0620
     67 H           1.0062   -5.0507   -3.0445 H       1  LIG11       0.0621
     68 H          -0.1571   -4.1798   -5.0232 H       1  LIG11       0.0618
     69 H           1.1586   -3.2285   -6.9051 H       1  LIG11       0.0628
     70 H           4.7612   -3.6770   -4.6111 H       1  LIG11       0.0631
     71 H          -0.0207   -0.8473    1.0493 H       1  LIG11       0.2100
     72 H           0.9563   -0.2856   -0.9807 H       1  LIG11       0.2100
@<TRIPOS>BOND
     1    17    36    1
     2    69    35    1
     3    35    36   ar
     4    35    34   ar
     5    36    37   ar
     6    68    34    1
     7    34    33   ar
     8    37    70    1
     9    37    32   ar
    10    33    32   ar
    11    33    67    1
    12    32     7    1
    13    45     7    1
    14    44     7    1
    15     7    43    1
    16    65    30    1
    17    41     6    1
    18    64    29    1
    19    30    29   ar
    20    30    31   ar
    21    29    28   ar
    22    40     5    1
    23    66    31    1
    24    31    26   ar
    25    43     6    1
    26    43     1   am
    27     6     5    1
    28     6    25    1
    29    72    50    1
    30    28    63    1
    31    28    27   ar
    32    50     5    1
    33    53    18    1
    34     5     4    1
    35    26    27   ar
    36    26    25    1
    37    27    62    1
    38    54    18    1
    39    59    24    1
    40    25    61    1
    41    25    60    1
    42    18    19    1
    43    18     3    1
    44     1    48    2
    45     1    42   am
    46    24    19   ar
    47    24    23   ar
    48    58    23    1
    49    19    20   ar
    50     4    49    1
    51     4     3    1
    52     4    39    1
    53    23    22   ar
    54    49    71    1
    55     3    42    1
    56     3    38    1
    57    42     2    1
    58    20    55    1
    59    20    21   ar
    60    22    21   ar
    61    22    57    1
    62    21    56    1
    63    15     2    1
    64     2    16    1
    65     2     8    1
    66    46     9    1
    67     8     9   ar
    68     8    13   ar
    69     9    10   ar
    70    52    13    1
    71    13    12   ar
    72    10    47    1
    73    10    11   ar
    74    12    11   ar
    75    12    14    1
    76    11    51    1
