@<TRIPOS>MOLECULE
Mol_113
 86 91 0 0 0
SMALL
GASTEIGER
Energy = 0

@<TRIPOS>ATOM
      1 C           2.8916   -5.0527    0.3520 C.2     1  LIG11       0.3060
      2 C           3.5991   -4.9117   -1.9697 C.3     1  LIG11       0.0416
      3 C           2.9479   -2.8156   -0.6853 C.3     1  LIG11       0.0601
      4 C           1.5530   -2.2115   -0.4000 C.3     1  LIG11       0.1016
      5 C           1.0831   -2.4939    1.0529 C.3     1  LIG11       0.1016
      6 C           0.8707   -4.0047    1.3166 C.3     1  LIG11       0.0601
      7 C           2.3262   -5.5795    2.6698 C.3     1  LIG11       0.0416
      8 C           2.9160   -4.5106   -3.2915 C.ar    1  LIG11      -0.0293
      9 C           3.6706   -4.0394   -4.3701 C.ar    1  LIG11      -0.0449
     10 C           3.0567   -3.7433   -5.5947 C.ar    1  LIG11       0.0374
     11 C           1.6652   -3.8020   -5.7139 C.ar    1  LIG11      -0.0496
     12 C           0.8968   -4.2339   -4.6342 C.ar    1  LIG11      -0.0607
     13 C           1.5314   -4.6307   -3.4557 C.ar    1  LIG11      -0.0570
     14 C           3.8649   -3.3665   -6.8148 C.2     1  LIG11       0.2494
     15 C           5.9097   -3.7230   -8.1492 C.ar    1  LIG11       0.1434
     16 N           6.9731   -4.5462   -8.2470 N.ar    1  LIG11      -0.2371
     17 C           4.0555   -2.2369    0.2452 C.3     1  LIG11      -0.0064
     18 C           5.4667   -2.4183   -0.3378 C.ar    1  LIG11      -0.0455
     19 C           6.0613   -1.3923   -1.0827 C.ar    1  LIG11      -0.0585
     20 C           7.3509   -1.5458   -1.6003 C.ar    1  LIG11      -0.0615
     21 C           8.0537   -2.7341   -1.3851 C.ar    1  LIG11      -0.0617
     22 C           7.4641   -3.7648   -0.6482 C.ar    1  LIG11      -0.0615
     23 C           6.1789   -3.6040   -0.1216 C.ar    1  LIG11      -0.0585
     24 C          -0.1370   -4.6593    0.3310 C.3     1  LIG11      -0.0064
     25 C          -0.7439   -5.9792    0.8275 C.ar    1  LIG11      -0.0455
     26 C          -0.1704   -7.2117    0.4895 C.ar    1  LIG11      -0.0585
     27 C          -0.7544   -8.4049    0.9257 C.ar    1  LIG11      -0.0615
     28 C          -1.9101   -8.3728    1.7110 C.ar    1  LIG11      -0.0617
     29 C          -2.4846   -7.1456    2.0526 C.ar    1  LIG11      -0.0615
     30 C          -1.9029   -5.9541    1.6108 C.ar    1  LIG11      -0.0585
     31 C           2.5528   -4.6539    3.8780 C.ar    1  LIG11      -0.0283
     32 C           3.7185   -3.8835    3.9507 C.ar    1  LIG11      -0.0570
     33 C           3.9325   -3.0188    5.0275 C.ar    1  LIG11      -0.0597
     34 C           3.0021   -2.9559    6.0679 C.ar    1  LIG11      -0.0410
     35 C           1.8523   -3.7532    6.0338 C.ar    1  LIG11       0.0248
     36 C           1.6246   -4.5780    4.9243 C.ar    1  LIG11      -0.0364
     37 N           0.9739   -3.7281    7.0671 N.pl3   1  LIG11      -0.3580
     38 H           1.0796   -3.0416    7.8293 H       1  LIG11       0.1423
     39 H           0.1978   -4.4048    7.1135 H       1  LIG11       0.1423
     40 H           3.5229   -6.0103   -1.9612 H       1  LIG11       0.0514
     41 N           3.0301   -4.2792   -0.7660 N.am    1  LIG11      -0.2752
     42 N           2.0942   -4.8082    1.4356 N.am    1  LIG11      -0.2752
     43 N           5.0656   -3.9503   -7.0283 N.am    1  LIG11      -0.2652
     44 C           7.8320   -4.4488   -9.2804 C.ar    1  LIG11       0.0478
     45 H           4.6695   -4.6636   -2.0073 H       1  LIG11       0.0514
     46 H           3.1959   -2.4066   -1.6808 H       1  LIG11       0.0531
     47 O           3.5552   -6.0759    0.3753 O.2     1  LIG11      -0.2524
     48 O           1.6437   -0.7953   -0.6659 O.3     1  LIG11      -0.3873
     49 O          -0.1620   -1.8192    1.3247 O.3     1  LIG11      -0.3873
     50 O           3.3502   -2.5527   -7.5614 O.2     1  LIG11      -0.2698
     51 H           0.8513   -2.6406   -1.1343 H       1  LIG11       0.0638
     52 C           7.6227   -3.4734  -10.2588 C.ar    1  LIG11       0.0458
     53 H           1.8233   -2.1421    1.7908 H       1  LIG11       0.0638
     54 N           6.5654   -2.6425  -10.1593 N.ar    1  LIG11      -0.2583
     55 C           5.7091   -2.7294   -9.1201 C.ar    1  LIG11       0.0676
     56 H           0.3445   -4.0267    2.2868 H       1  LIG11       0.0531
     57 H           3.2133   -6.2311    2.6468 H       1  LIG11       0.0514
     58 H           1.4602   -6.2387    2.8369 H       1  LIG11       0.0514
     59 H           4.7403   -3.9044   -4.2559 H       1  LIG11       0.0628
     60 H           1.1798   -3.5255   -6.6453 H       1  LIG11       0.0625
     61 H          -0.1859   -4.2705   -4.7156 H       1  LIG11       0.0618
     62 H           0.9264   -5.0507   -2.6751 H       1  LIG11       0.0621
     63 H           4.0266   -2.7291    1.2233 H       1  LIG11       0.0332
     64 H           3.8914   -1.1616    0.4188 H       1  LIG11       0.0332
     65 H           5.5259   -0.4653   -1.2622 H       1  LIG11       0.0620
     66 H           7.8081   -0.7413   -2.1690 H       1  LIG11       0.0618
     67 H           9.0546   -2.8554   -1.7885 H       1  LIG11       0.0618
     68 H           8.0060   -4.6913   -0.4843 H       1  LIG11       0.0618
     69 H           5.7356   -4.4090    0.4557 H       1  LIG11       0.0620
     70 H           0.3963   -4.8897   -0.5860 H       1  LIG11       0.0332
     71 H          -0.9587   -3.9704    0.0781 H       1  LIG11       0.0332
     72 H           0.7293   -7.2519   -0.1173 H       1  LIG11       0.0620
     73 H          -0.3113   -9.3584    0.6538 H       1  LIG11       0.0618
     74 H          -2.3610   -9.2988    2.0550 H       1  LIG11       0.0618
     75 H          -3.3839   -7.1174    2.6602 H       1  LIG11       0.0618
     76 H          -2.3597   -5.0057    1.8753 H       1  LIG11       0.0620
     77 H           4.4703   -3.9613    3.1739 H       1  LIG11       0.0621
     78 H           4.8240   -2.3992    5.0602 H       1  LIG11       0.0618
     79 H           3.1828   -2.2872    6.9037 H       1  LIG11       0.0636
     80 H           0.7172   -5.1698    4.8781 H       1  LIG11       0.0639
     81 H           5.3794   -4.6499   -6.3898 H       1  LIG11       0.1566
     82 H           8.6756   -5.1271   -9.3431 H       1  LIG11       0.0846
     83 H           0.8009   -0.3588   -0.7437 H       1  LIG11       0.2100
     84 H          -0.0770   -0.8710    1.3540 H       1  LIG11       0.2100
     85 H           8.3031   -3.3780  -11.0970 H       1  LIG11       0.0845
     86 H           4.9037   -2.0123   -9.0884 H       1  LIG11       0.0865
@<TRIPOS>BOND
     1    85    52    1
     2    52    54   ar
     3    52    44   ar
     4    54    55   ar
     5    82    44    1
     6    44    16   ar
     7    55    86    1
     8    55    15   ar
     9    16    15   ar
    10    15    43    1
    11    50    14    2
    12    43    14   am
    13    43    81    1
    14    14    10    1
    15    60    11    1
    16    11    10   ar
    17    11    12   ar
    18    10     9   ar
    19    61    12    1
    20    12    13   ar
    21     9    59    1
    22     9     8   ar
    23    13     8   ar
    24    13    62    1
    25     8     2    1
    26    66    20    1
    27    45     2    1
    28     2    40    1
    29     2    41    1
    30    67    21    1
    31    46     3    1
    32    20    21   ar
    33    20    19   ar
    34    21    22   ar
    35    65    19    1
    36    51     4    1
    37    19    18   ar
    38    41     3    1
    39    41     1   am
    40    83    48    1
    41     3     4    1
    42     3    17    1
    43    48     4    1
    44    22    68    1
    45    22    23   ar
    46    70    24    1
    47     4     5    1
    48    18    23   ar
    49    18    17    1
    50    23    69    1
    51    72    26    1
    52    71    24    1
    53    17    64    1
    54    17    63    1
    55    24    25    1
    56    24     6    1
    57     1    47    2
    58     1    42   am
    59    26    25   ar
    60    26    27   ar
    61    73    27    1
    62    25    30   ar
    63    27    28   ar
    64     5     6    1
    65     5    49    1
    66     5    53    1
    67     6    42    1
    68     6    56    1
    69    49    84    1
    70    42     7    1
    71    30    76    1
    72    30    29   ar
    73    28    29   ar
    74    28    74    1
    75    29    75    1
    76    57     7    1
    77     7    58    1
    78     7    31    1
    79    77    32    1
    80    31    32   ar
    81    31    36   ar
    82    32    33   ar
    83    80    36    1
    84    36    35   ar
    85    33    78    1
    86    33    34   ar
    87    35    34   ar
    88    35    37    1
    89    34    79    1
    90    37    39    1
    91    37    38    1
