@<TRIPOS>MOLECULE
Mol_92
 94 100 0 0 0
SMALL
GASTEIGER
Energy = 0

@<TRIPOS>ATOM
      1 C           3.1978   -4.6927   -0.0997 C.2     1  LIG11       0.3060
      2 C           3.9372   -4.3204   -2.3787 C.3     1  LIG11       0.0416
      3 C           3.0175   -2.4032   -0.9899 C.3     1  LIG11       0.0601
      4 C           1.5515   -1.9914   -0.7187 C.3     1  LIG11       0.1016
      5 C           1.0513   -2.4014    0.6880 C.3     1  LIG11       0.1016
      6 C           1.0699   -3.9383    0.8979 C.3     1  LIG11       0.0601
      7 C           2.6955   -5.4360    2.1534 C.3     1  LIG11       0.0416
      8 C           3.2235   -3.9430   -3.6889 C.ar    1  LIG11      -0.0293
      9 C           3.9728   -3.5430   -4.7970 C.ar    1  LIG11      -0.0449
     10 C           3.3523   -3.2827   -6.0247 C.ar    1  LIG11       0.0374
     11 C           1.9565   -3.2955   -6.1201 C.ar    1  LIG11      -0.0496
     12 C           1.1941   -3.6583   -5.0094 C.ar    1  LIG11      -0.0607
     13 C           1.8310   -4.0100   -3.8160 C.ar    1  LIG11      -0.0570
     14 C           4.2077   -3.0107   -7.2379 C.2     1  LIG11       0.2504
     15 C           0.2161   -6.7782    8.0846 C.ar    1  LIG11       0.1995
     16 N          -0.9327   -6.3608    8.5054 N.ar    1  LIG11      -0.3325
     17 C          -1.3556   -7.1352    9.4804 C.ar    1  LIG11       0.0228
     18 C           4.0241   -1.7637    0.0111 C.3     1  LIG11      -0.0064
     19 C           5.4872   -2.0336   -0.3739 C.ar    1  LIG11      -0.0455
     20 C           6.1691   -3.1422    0.1437 C.ar    1  LIG11      -0.0585
     21 C           7.5024   -3.3810   -0.2008 C.ar    1  LIG11      -0.0615
     22 C           8.1661   -2.5115   -1.0700 C.ar    1  LIG11      -0.0617
     23 C           7.4943   -1.4000   -1.5858 C.ar    1  LIG11      -0.0615
     24 C           6.1607   -1.1631   -1.2386 C.ar    1  LIG11      -0.0585
     25 C           0.1563   -4.6938   -0.1159 C.3     1  LIG11      -0.0064
     26 C          -0.5741   -5.8992    0.4930 C.ar    1  LIG11      -0.0455
     27 C          -1.7478   -5.6930    1.2268 C.ar    1  LIG11      -0.0585
     28 C          -2.4330   -6.7759    1.7844 C.ar    1  LIG11      -0.0615
     29 C          -1.9476   -8.0745    1.6087 C.ar    1  LIG11      -0.0617
     30 C          -0.7825   -8.2874    0.8667 C.ar    1  LIG11      -0.0615
     31 C          -0.0970   -7.2029    0.3115 C.ar    1  LIG11      -0.0585
     32 C           2.6837   -4.6657    3.4824 C.ar    1  LIG11      -0.0293
     33 C           1.7782   -5.0126    4.4869 C.ar    1  LIG11      -0.0449
     34 C           1.8298   -4.3874    5.7370 C.ar    1  LIG11       0.0374
     35 C           2.7069   -3.3184    5.9506 C.ar    1  LIG11      -0.0496
     36 C           3.5900   -2.9393    4.9377 C.ar    1  LIG11      -0.0607
     37 C           3.5945   -3.6289    3.7203 C.ar    1  LIG11      -0.0570
     38 C           0.9444   -4.9087    6.8414 C.2     1  LIG11       0.2504
     39 C          -0.4358   -8.0895    9.7299 C.ar    1  LIG11       0.0471
     40 N           0.5525   -7.7959    8.7293 N.ar    1  LIG11      -0.2228
     41 H          -1.4400   -5.5526    8.1162 H       1  LIG11       0.1680
     42 N           3.2714   -3.8373   -1.1582 N.am    1  LIG11      -0.2752
     43 N           2.3842   -4.5898    0.9906 N.am    1  LIG11      -0.2752
     44 N           5.2912   -3.7779   -7.4651 N.am    1  LIG11      -0.2520
     45 C           6.1002   -3.5979   -8.5170 C.ar    1  LIG11       0.1995
     46 N           0.9687   -6.2249    7.1247 N.am    1  LIG11      -0.2520
     47 N           6.3819   -2.4782   -9.0989 N.ar    1  LIG11      -0.3325
     48 O           3.9392   -5.6607   -0.1378 O.2     1  LIG11      -0.2524
     49 O           1.4527   -0.5617   -0.8702 O.3     1  LIG11      -0.3873
     50 O          -0.2919   -1.8877    0.8185 O.3     1  LIG11      -0.3873
     51 O           3.8679   -2.1336   -8.0175 O.2     1  LIG11      -0.2698
     52 O           0.2625   -4.1227    7.4816 O.2     1  LIG11      -0.2698
     53 C           7.1844   -2.6980  -10.1172 C.ar    1  LIG11       0.0228
     54 C           7.4203   -4.0212  -10.2286 C.ar    1  LIG11       0.0471
     55 N           6.6932   -4.5320   -9.0999 N.ar    1  LIG11      -0.2228
     56 H          -0.4249   -8.8776   10.4814 H       1  LIG11       0.0845
     57 H           4.0046   -5.4179   -2.4417 H       1  LIG11       0.0514
     58 H           4.9661   -3.9284   -2.3705 H       1  LIG11       0.0514
     59 H           3.2501   -1.9094   -1.9501 H       1  LIG11       0.0531
     60 H           0.9211   -2.4518   -1.4952 H       1  LIG11       0.0638
     61 H           1.6641   -1.9129    1.4624 H       1  LIG11       0.0638
     62 H           0.5706   -4.0613    1.8735 H       1  LIG11       0.0531
     63 H           3.6984   -5.8904    2.1344 H       1  LIG11       0.0514
     64 H           1.9715   -6.2653    2.1680 H       1  LIG11       0.0514
     65 H           5.0487   -3.4347   -4.7143 H       1  LIG11       0.0628
     66 H           1.4683   -3.0375   -7.0551 H       1  LIG11       0.0625
     67 H           0.1091   -3.6755   -5.0731 H       1  LIG11       0.0618
     68 H           1.2259   -4.3455   -2.9932 H       1  LIG11       0.0621
     69 H          -2.2982   -7.0351   10.0188 H       1  LIG11       0.0823
     70 H           3.8767   -2.1664    1.0169 H       1  LIG11       0.0332
     71 H           3.8651   -0.6747    0.0695 H       1  LIG11       0.0332
     72 H           5.6711   -3.8283    0.8199 H       1  LIG11       0.0620
     73 H           8.0231   -4.2420    0.2078 H       1  LIG11       0.0618
     74 H           9.2004   -2.6990   -1.3425 H       1  LIG11       0.0618
     75 H           8.0104   -0.7193   -2.2561 H       1  LIG11       0.0618
     76 H           5.6510   -0.2946   -1.6431 H       1  LIG11       0.0620
     77 H           0.7624   -5.0632   -0.9471 H       1  LIG11       0.0332
     78 H          -0.6225   -4.0370   -0.5342 H       1  LIG11       0.0332
     79 H          -2.1355   -4.6881    1.3631 H       1  LIG11       0.0620
     80 H          -3.3428   -6.6082    2.3528 H       1  LIG11       0.0618
     81 H          -2.4753   -8.9159    2.0472 H       1  LIG11       0.0618
     82 H          -0.4105   -9.2971    0.7209 H       1  LIG11       0.0618
     83 H           0.8058   -7.3829   -0.2642 H       1  LIG11       0.0620
     84 H           1.0285   -5.7766    4.3104 H       1  LIG11       0.0628
     85 H           2.7093   -2.7974    6.9036 H       1  LIG11       0.0625
     86 H           4.2797   -2.1148    5.0989 H       1  LIG11       0.0618
     87 H           4.3207   -3.3613    2.9647 H       1  LIG11       0.0621
     88 H           6.0418   -1.5557   -8.7906 H       1  LIG11       0.1680
     89 H           8.0003   -4.5750  -10.9652 H       1  LIG11       0.0845
     90 H           5.4485   -4.5980   -6.9207 H       1  LIG11       0.1580
     91 H           1.6495   -6.8140    6.6958 H       1  LIG11       0.1580
     92 H           0.5570   -0.2519   -0.7631 H       1  LIG11       0.2100
     93 H          -0.6734   -2.0120    1.6835 H       1  LIG11       0.2100
     94 H           7.6022   -1.9426  -10.7831 H       1  LIG11       0.0823
@<TRIPOS>BOND
     1    89    54    1
     2    94    53    1
     3    54    53   ar
     4    54    55   ar
     5    53    47   ar
     6    55    45   ar
     7    47    88    1
     8    47    45   ar
     9    45    44    1
    10    51    14    2
    11    44    14   am
    12    44    90    1
    13    14    10    1
    14    66    11    1
    15    11    10   ar
    16    11    12   ar
    17    10     9   ar
    18    67    12    1
    19    12    13   ar
    20     9    65    1
    21     9     8   ar
    22    13     8   ar
    23    13    68    1
    24     8     2    1
    25    57     2    1
    26     2    58    1
    27     2    42    1
    28    75    23    1
    29    59     3    1
    30    76    24    1
    31    23    24   ar
    32    23    22   ar
    33    60     4    1
    34    74    22    1
    35    24    19   ar
    36    42     3    1
    37    42     1   am
    38    22    21   ar
    39     3     4    1
    40     3    18    1
    41    77    25    1
    42    49    92    1
    43    49     4    1
    44     4     5    1
    45    78    25    1
    46    19    18    1
    47    19    20   ar
    48    83    31    1
    49    21    20   ar
    50    21    73    1
    51    48     1    2
    52    25    26    1
    53    25     6    1
    54     1    43   am
    55    18    71    1
    56    18    70    1
    57    20    72    1
    58    31    26   ar
    59    31    30   ar
    60    26    27   ar
    61     5    50    1
    62     5     6    1
    63     5    61    1
    64    82    30    1
    65    50    93    1
    66    30    29   ar
    67     6    43    1
    68     6    62    1
    69    43     7    1
    70    27    79    1
    71    27    28   ar
    72    29    28   ar
    73    29    81    1
    74    28    80    1
    75    63     7    1
    76     7    64    1
    77     7    32    1
    78    87    37    1
    79    32    37   ar
    80    32    33   ar
    81    37    36   ar
    82    84    33    1
    83    33    34   ar
    84    36    86    1
    85    36    35   ar
    86    34    35   ar
    87    34    38    1
    88    35    85    1
    89    91    46    1
    90    38    46   am
    91    38    52    2
    92    46    15    1
    93    15    16   ar
    94    15    40   ar
    95    41    16    1
    96    16    17   ar
    97    40    39   ar
    98    17    39   ar
    99    17    69    1
   100    39    56    1
