@<TRIPOS>MOLECULE
Mol_17
 56 58 0 0 0
SMALL
GASTEIGER
Energy = 0

@<TRIPOS>ATOM
      1 C           2.8103   -4.7328    0.3112 C.2     1  LIG11       0.3069
      2 C           2.4116   -5.1101    2.6819 C.3     1  LIG11       0.0779
      3 C           0.8208   -3.6855    1.2996 C.3     1  LIG11       0.0607
      4 C           0.9624   -2.1676    1.0269 C.3     1  LIG11       0.1016
      5 C           1.4589   -1.8786   -0.4135 C.3     1  LIG11       0.1016
      6 C           2.8658   -2.4746   -0.6645 C.3     1  LIG11       0.0607
      7 C           3.3507   -4.5470   -2.0514 C.3     1  LIG11       0.0779
      8 C           2.8434   -4.1025    3.6458 C.1     1  LIG11      -0.0863
      9 C           3.2101   -3.2811    4.4468 C.1     1  LIG11      -0.1176
     10 H           3.2379   -5.8345    2.6208 H       1  LIG11       0.0602
     11 H           1.5378   -5.6392    3.0918 H       1  LIG11       0.0602
     12 H           0.3211   -3.7102    2.2841 H       1  LIG11       0.0531
     13 H           1.6703   -1.7631    1.7700 H       1  LIG11       0.0638
     14 H           0.7785   -2.3170   -1.1617 H       1  LIG11       0.0638
     15 H           3.1435   -2.0416   -1.6423 H       1  LIG11       0.0531
     16 H           3.4558   -5.6424   -2.0249 H       1  LIG11       0.0602
     17 H           4.3110   -4.1200   -2.3784 H       1  LIG11       0.0602
     18 C          -0.1783   -4.3966    0.3381 C.3     1  LIG11      -0.0064
     19 C          -0.5291   -5.8180    0.8073 C.ar    1  LIG11      -0.0455
     20 C          -1.4396   -6.0122    1.8526 C.ar    1  LIG11      -0.0585
     21 C          -1.7893   -7.3044    2.2579 C.ar    1  LIG11      -0.0615
     22 C          -1.2289   -8.4139    1.6199 C.ar    1  LIG11      -0.0617
     23 C          -0.3128   -8.2272    0.5811 C.ar    1  LIG11      -0.0615
     24 C           0.0429   -6.9349    0.1850 C.ar    1  LIG11      -0.0585
     25 C           3.9603   -1.9410    0.3079 C.3     1  LIG11      -0.0064
     26 C           5.3817   -2.1961   -0.2259 C.ar    1  LIG11      -0.0455
     27 C           6.0167   -3.4227    0.0057 C.ar    1  LIG11      -0.0585
     28 C           7.3164   -3.6503   -0.4551 C.ar    1  LIG11      -0.0615
     29 C           7.9976   -2.6493   -1.1533 C.ar    1  LIG11      -0.0617
     30 C           7.3702   -1.4247   -1.3937 C.ar    1  LIG11      -0.0615
     31 C           6.0665   -1.2031   -0.9370 C.ar    1  LIG11      -0.0585
     32 C           2.3399   -4.2792   -3.0693 C.1     1  LIG11      -0.0863
     33 C           1.5068   -4.0688   -3.9129 C.1     1  LIG11      -0.1176
     34 H           3.5354   -2.5649    5.1525 H       1  LIG11       0.1228
     35 H           0.2343   -4.4726   -0.6773 H       1  LIG11       0.0332
     36 H          -1.1157   -3.8208    0.2734 H       1  LIG11       0.0332
     37 H          -1.8846   -5.1585    2.3537 H       1  LIG11       0.0620
     38 H          -2.4983   -7.4476    3.0679 H       1  LIG11       0.0618
     39 H          -1.5035   -9.4180    1.9292 H       1  LIG11       0.0618
     40 H           0.1221   -9.0871    0.0807 H       1  LIG11       0.0618
     41 H           0.7660   -6.8078   -0.6146 H       1  LIG11       0.0620
     42 N           2.0694   -4.4473    1.4156 N.am    1  LIG11      -0.2685
     43 N           2.9246   -3.9364   -0.7864 N.am    1  LIG11      -0.2685
     44 H           3.8830   -2.4182    1.2956 H       1  LIG11       0.0332
     45 H           3.8295   -0.8567    0.4539 H       1  LIG11       0.0332
     46 H           5.5047   -4.2079    0.5504 H       1  LIG11       0.0620
     47 H           7.7994   -4.6050   -0.2693 H       1  LIG11       0.0618
     48 O           3.4240   -5.7867    0.3037 O.2     1  LIG11      -0.2523
     49 O          -0.3229   -1.5577    1.2662 O.3     1  LIG11      -0.3873
     50 O           1.5168   -0.4609   -0.6760 O.3     1  LIG11      -0.3873
     51 H           9.0098   -2.8230   -1.5064 H       1  LIG11       0.0618
     52 H           7.8973   -0.6445   -1.9350 H       1  LIG11       0.0618
     53 H           5.5919   -0.2480   -1.1382 H       1  LIG11       0.0620
     54 H           0.7774   -3.8885   -4.6556 H       1  LIG11       0.1228
     55 H          -0.2942   -0.6063    1.2942 H       1  LIG11       0.2100
     56 H           0.6601   -0.0506   -0.7508 H       1  LIG11       0.2100
@<TRIPOS>BOND
     1    54    33    1
     2    33    32    3
     3    32     7    1
     4    17     7    1
     5     7    16    1
     6     7    43    1
     7    52    30    1
     8    15     6    1
     9    51    29    1
    10    30    29   ar
    11    30    31   ar
    12    14     5    1
    13    29    28   ar
    14    53    31    1
    15    31    26   ar
    16    43     6    1
    17    43     1   am
    18    56    50    1
    19    35    18    1
    20    50     5    1
    21     6     5    1
    22     6    25    1
    23    41    24    1
    24    28    47    1
    25    28    27   ar
    26     5     4    1
    27    26    27   ar
    28    26    25    1
    29    27    46    1
    30    40    23    1
    31    24    23   ar
    32    24    19   ar
    33    36    18    1
    34    48     1    2
    35    25    45    1
    36    25    44    1
    37     1    42   am
    38    18    19    1
    39    18     3    1
    40    23    22   ar
    41    19    20   ar
    42     4    49    1
    43     4     3    1
    44     4    13    1
    45    49    55    1
    46     3    42    1
    47     3    12    1
    48    42     2    1
    49    22    39    1
    50    22    21   ar
    51    20    21   ar
    52    20    37    1
    53    21    38    1
    54    10     2    1
    55     2    11    1
    56     2     8    1
    57     8     9    3
    58     9    34    1
