@<TRIPOS>MOLECULE
GHSM.4.pdb
 63 67 0 0 0
SMALL
GASTEIGER

@<TRIPOS>ATOM
      1  C1        -0.9970    1.1530    1.9160 C.ar    1  BEN1       -0.0568
      2  C2         0.1680    1.8590    2.2290 C.ar    1  BEN1       -0.0614
      3  C3         0.1850    3.2530    2.1380 C.ar    1  BEN1       -0.0600
      4  C4        -0.9610    3.9380    1.7250 C.ar    1  BEN1       -0.0400
      5  C5        -2.1350    3.2360    1.4330 C.ar    1  BEN1        0.0398
      6  C6        -2.1540    1.8390    1.5310 C.ar    1  BEN1       -0.0259
      7 H7__       -0.9960    0.0690    1.9750 H       1  BEN1        0.0621
      8 H8__        1.0600    1.3250    2.5420 H       1  BEN1        0.0618
      9 H9__        1.0880    3.8030    2.3850 H       1  BEN1        0.0618
     10 H10_       -0.9310    5.0180    1.6230 H       1  BEN1        0.0636
     11 N11_       -3.3060    3.9360    1.0290 N.am    1  BEN1       -0.2653
     12 C12_       -3.4510    1.0840    1.2180 C.3     1  BEN1       -0.0238
     13 C13_       -3.7120    1.0770   -0.3110 C.3     1  BEN1       -0.0219
     14 C14_       -3.4770    2.4640   -0.9680 C.3     1  BEN1        0.1002
     15 C15_       -3.9940    3.5780   -0.0840 C.2     1  BEN1        0.2404
     16 O16_       -5.0310    4.1330   -0.4110 O.2     1  BEN1       -0.2732
     17 C17_       -3.8330    5.0140    1.8650 C.3     1  BEN1        0.0449
     18 H18_       -4.2780    1.5920    1.7380 H       1  BEN1        0.0314
     19 H19_       -3.4190    0.0500    1.5990 H       1  BEN1        0.0314
     20 H20_       -4.7560    0.7670   -0.4860 H       1  BEN1        0.0291
     21 H21_       -3.0530    0.3390   -0.7970 H       1  BEN1        0.0291
     22 N22_       -4.1380    2.4930   -2.2710 N.am    1  BEN1       -0.3027
     23 H23_       -2.3980    2.6470   -1.1050 H       1  BEN1        0.0595
     24  C1        -7.4850    4.2870    2.7930 C.ar    2  BEN2       -0.0537
     25  C2        -7.3230    3.2610    3.7290 C.ar    2  BEN2       -0.0170
     26  C3        -6.0410    2.9000    4.1520 C.ar    2  BEN2       -0.0537
     27  C4        -4.9200    3.5010    3.5730 C.ar    2  BEN2       -0.0565
     28  C5        -5.0770    4.4580    2.5650 C.ar    2  BEN2       -0.0297
     29  C6        -6.3630    4.8790    2.2070 C.ar    2  BEN2       -0.0565
     30 H30_       -4.0700    5.8960    1.2490 H       1  BEN1        0.0518
     31 H31_       -3.1250    5.3350    2.6440 H       1  BEN1        0.0518
     32 H32_       -5.0250    2.9570   -2.3470 H       1  BEN1        0.1495
     33 H33_       -8.4810    4.6160    2.5130 H       2  BEN2        0.0624
     34 H34_       -5.9140    2.1470    4.9240 H       2  BEN2        0.0624
     35 H35_       -3.9270    3.2160    3.9050 H       2  BEN2        0.0621
     36  C1        -9.4670    3.2530    4.9850 C.ar    3  BEN3       -0.0532
     37  C2        -8.5000    2.5410    4.2680 C.ar    3  BEN3       -0.0026
     38  C3        -8.6370    1.1610    4.0770 C.ar    3  BEN3        0.0787
     39  C4        -9.6950    0.4880    4.6990 C.ar    3  BEN3       -0.0459
     40  C5       -10.6480    1.1930    5.4400 C.ar    3  BEN3       -0.0609
     41  C6       -10.5440    2.5800    5.5680 C.ar    3  BEN3       -0.0611
     42 H42_       -6.4980    5.6620    1.4670 H       2  BEN2        0.0621
     43 H43_       -9.3800    4.3300    5.0950 H       3  BEN3        0.0624
     44 H44_       -9.7830   -0.5900    4.6040 H       3  BEN3        0.0626
     45 H45_      -11.4690    0.6630    5.9140 H       3  BEN3        0.0618
     46  N1        -7.1000    0.8180    2.1420 N.ar    4  TET4       -0.0576
     47  N2        -6.3330   -0.1850    1.6740 N.ar    4  TET4        0.1370
     48  N3        -6.4850   -1.2200    2.5180 N.ar    4  TET4        0.0227
     49  N4        -7.3890   -0.8330    3.5410 N.ar    4  TET4       -0.0564
     50  C1        -7.6730    0.3640    3.2200 C.ar    4  TET4        0.3568
     51 H51_      -11.2970    3.1340    6.1210 H       3  BEN3        0.0618
     52 H52_       -7.2240    1.7390    1.7030 H       4  TET4        0.4932
     53 C53_       -3.5810    1.8680   -3.3280 C.2     1  BEN1        0.2302
     54 O54_       -2.5170    1.2770   -3.2450 O.2     1  BEN1       -0.2741
     55 C55_       -4.3130    1.9120   -4.6500 C.3     1  BEN1        0.0794
     56 H56_       -3.9080    1.1210   -5.3060 H       1  BEN1        0.0551
     57 C57_       -4.0830    3.2960   -5.3070 C.3     1  BEN1       -0.0414
     58 N58_       -5.7630    1.7050   -4.4230 N.3     1  BEN1       -0.3202
     59 H59_       -3.0050    3.4790   -5.4410 H       1  BEN1        0.0249
     60 H60_       -4.5010    4.0930   -4.6730 H       1  BEN1        0.0249
     61 H61_       -4.5710    3.3380   -6.2930 H       1  BEN1        0.0249
     62 H62_       -5.9370    0.7610   -3.9210 H       1  BEN1        0.1189
     63 H63_       -6.3040    1.7160   -5.3600 H       1  BEN1        0.1189
@<TRIPOS>BOND
     1     1     2   ar
     2     1     6   ar
     3     1     7    1
     4     2     8    1
     5     2     3   ar
     6     3     4   ar
     7     3     9    1
     8     4     5   ar
     9     4    10    1
    10     5     6   ar
    11     5    11    1
    12     6    12    1
    13    11    15   am
    14    11    17    1
    15    12    13    1
    16    12    18    1
    17    12    19    1
    18    13    14    1
    19    13    20    1
    20    13    21    1
    21    14    15    1
    22    14    22    1
    23    14    23    1
    24    15    16    2
    25    17    30    1
    26    17    31    1
    27    17    28    1
    28    22    32    1
    29    22    53   am
    30    24    25   ar
    31    24    29   ar
    32    24    33    1
    33    25    26   ar
    34    25    37    1
    35    26    27   ar
    36    26    34    1
    37    27    28   ar
    38    27    35    1
    39    28    29   ar
    40    29    42    1
    41    36    37   ar
    42    36    41   ar
    43    36    43    1
    44    37    38   ar
    45    38    39   ar
    46    38    50    1
    47    39    40   ar
    48    39    44    1
    49    40    41   ar
    50    40    45    1
    51    41    51    1
    52    46    47   ar
    53    46    50   ar
    54    46    52    1
    55    47    48   ar
    56    48    49   ar
    57    49    50   ar
    58    53    54    2
    59    53    55    1
    60    55    56    1
    61    55    57    1
    62    55    58    1
    63    57    59    1
    64    57    60    1
    65    57    61    1
    66    58    62    1
    67    58    63    1
