@<TRIPOS>MOLECULE
GHSM.1.pdb
 53 57 0 0 0
SMALL
GASTEIGER

@<TRIPOS>ATOM
      1  C1        -0.9830    1.1620    1.9030 C.ar    1  BEN1       -0.0568
      2  C2         0.1830    1.8710    2.2040 C.ar    1  BEN1       -0.0614
      3  C3         0.1960    3.2650    2.1110 C.ar    1  BEN1       -0.0600
      4  C4        -0.9550    3.9470    1.7080 C.ar    1  BEN1       -0.0400
      5  C5        -2.1300    3.2420    1.4270 C.ar    1  BEN1        0.0398
      6  C6        -2.1450    1.8450    1.5300 C.ar    1  BEN1       -0.0259
      7 H7__       -0.9780    0.0780    1.9630 H       1  BEN1        0.0621
      8 H8__        1.0800    1.3390    2.5080 H       1  BEN1        0.0618
      9 H9__        1.1000    3.8170    2.3500 H       1  BEN1        0.0618
     10 H10_       -0.9290    5.0270    1.6050 H       1  BEN1        0.0636
     11 N11_       -3.3060    3.9390    1.0310 N.am    1  BEN1       -0.2655
     12 C12_       -3.4450    1.0870    1.2370 C.3     1  BEN1       -0.0241
     13 C13_       -3.7310    1.0720   -0.2880 C.3     1  BEN1       -0.0252
     14 C14_       -3.4970    2.4570   -0.9540 C.3     1  BEN1        0.0831
     15 C15_       -4.0050    3.5780   -0.0730 C.2     1  BEN1        0.2369
     16 O16_       -5.0430    4.1380   -0.3900 O.2     1  BEN1       -0.2735
     17 C17_       -3.8260    5.0190    1.8700 C.3     1  BEN1        0.0449
     18 H18_       -4.2650    1.5960    1.7660 H       1  BEN1        0.0314
     19 H19_       -3.4060    0.0550    1.6220 H       1  BEN1        0.0314
     20 H20_       -4.7770    0.7580   -0.4380 H       1  BEN1        0.0288
     21 H21_       -3.0830    0.3310   -0.7840 H       1  BEN1        0.0288
     22 N22_       -4.1150    2.4760   -2.3000 N.3     1  BEN1       -0.3199
     23 H23_       -2.4120    2.6070   -1.0900 H       1  BEN1        0.0554
     24  C1        -7.4790    4.2930    2.7920 C.ar    2  BEN2       -0.0537
     25  C2        -7.3190    3.2650    3.7250 C.ar    2  BEN2       -0.0170
     26  C3        -6.0380    2.9050    4.1530 C.ar    2  BEN2       -0.0537
     27  C4        -4.9170    3.5100    3.5810 C.ar    2  BEN2       -0.0565
     28  C5        -5.0710    4.4660    2.5710 C.ar    2  BEN2       -0.0297
     29  C6        -6.3560    4.8880    2.2120 C.ar    2  BEN2       -0.0565
     30 H30_       -4.0610    5.9020    1.2550 H       1  BEN1        0.0518
     31 H31_       -3.1150    5.3360    2.6480 H       1  BEN1        0.0518
     32 H32_       -3.8450    3.3830   -2.8250 H       1  BEN1        0.1189
     33 H33_       -5.1930    2.4330   -2.2160 H       1  BEN1        0.1189
     34 H34_       -8.4740    4.6220    2.5090 H       2  BEN2        0.0624
     35 H35_       -5.9130    2.1510    4.9240 H       2  BEN2        0.0624
     36  C1        -9.4710    3.2500    4.9670 C.ar    3  BEN3       -0.0532
     37  C2        -8.4980    2.5410    4.2560 C.ar    3  BEN3       -0.0026
     38  C3        -8.6310    1.1600    4.0630 C.ar    3  BEN3        0.0787
     39  C4        -9.6920    0.4850    4.6780 C.ar    3  BEN3       -0.0459
     40  C5       -10.6500    1.1880    5.4130 C.ar    3  BEN3       -0.0609
     41  C6       -10.5500    2.5750    5.5430 C.ar    3  BEN3       -0.0611
     42 H42_       -3.9240    3.2280    3.9170 H       2  BEN2        0.0621
     43 H43_       -6.4900    5.6740    1.4750 H       2  BEN2        0.0621
     44 H44_       -9.3860    4.3270    5.0800 H       3  BEN3        0.0624
     45 H45_       -9.7780   -0.5930    4.5810 H       3  BEN3        0.0626
     46  N1        -7.0800    0.8200    2.1390 N.ar    4  TET4       -0.0576
     47  N2        -6.3110   -0.1850    1.6750 N.ar    4  TET4        0.1370
     48  N3        -6.4700   -1.2200    2.5170 N.ar    4  TET4        0.0227
     49  N4        -7.3810   -0.8330    3.5340 N.ar    4  TET4       -0.0564
     50  C1        -7.6610    0.3650    3.2120 C.ar    4  TET4        0.3568
     51 H51_      -11.4730    0.6560    5.8820 H       3  BEN3        0.0618
     52 H52_      -11.3070    3.1270    6.0930 H       3  BEN3        0.0618
     53 H53_       -7.1990    1.7410    1.7010 H       4  TET4        0.4932
@<TRIPOS>BOND
     1     1     2   ar
     2     1     6   ar
     3     1     7    1
     4     2     8    1
     5     2     3   ar
     6     3     4   ar
     7     3     9    1
     8     4     5   ar
     9     4    10    1
    10     5     6   ar
    11     5    11    1
    12     6    12    1
    13    11    15   am
    14    11    17    1
    15    12    13    1
    16    12    18    1
    17    12    19    1
    18    13    14    1
    19    13    20    1
    20    13    21    1
    21    14    15    1
    22    14    22    1
    23    14    23    1
    24    15    16    2
    25    17    30    1
    26    17    31    1
    27    17    28    1
    28    22    32    1
    29    22    33    1
    30    24    25   ar
    31    24    29   ar
    32    24    34    1
    33    25    26   ar
    34    25    37    1
    35    26    27   ar
    36    26    35    1
    37    27    28   ar
    38    27    42    1
    39    28    29   ar
    40    29    43    1
    41    36    37   ar
    42    36    41   ar
    43    36    44    1
    44    37    38   ar
    45    38    39   ar
    46    38    50    1
    47    39    40   ar
    48    39    45    1
    49    40    41   ar
    50    40    51    1
    51    41    52    1
    52    46    47   ar
    53    46    50   ar
    54    46    53    1
    55    47    48   ar
    56    48    49   ar
    57    49    50   ar
