@<TRIPOS>MOLECULE
GHSM.2.pdb
 66 70 0 0 0
SMALL
GASTEIGER

@<TRIPOS>ATOM
      1  C1        -0.9590    1.1800    1.8940 C.ar    1  BEN1       -0.0568
      2  C2         0.1990    1.9000    2.1990 C.ar    1  BEN1       -0.0614
      3  C3         0.1980    3.2950    2.1080 C.ar    1  BEN1       -0.0600
      4  C4        -0.9590    3.9660    1.7050 C.ar    1  BEN1       -0.0400
      5  C5        -2.1260    3.2490    1.4210 C.ar    1  BEN1        0.0398
      6  C6        -2.1270    1.8520    1.5180 C.ar    1  BEN1       -0.0259
      7  H1        -0.9440    0.0960    1.9530 H       1  BEN1        0.0621
      8  H2         1.1000    1.3770    2.5050 H       1  BEN1        0.0618
      9  H3         1.0970    3.8550    2.3490 H       1  BEN1        0.0618
     10  H4        -0.9430    5.0460    1.6040 H       1  BEN1        0.0636
     11 N11_       -3.3090    3.9350    1.0250 N.am    1  BEN1       -0.2653
     12 C12_       -3.4150    1.0790    1.2120 C.3     1  BEN1       -0.0238
     13 C13_       -3.6830    1.0700   -0.3150 C.3     1  BEN1       -0.0219
     14 C14_       -3.4750    2.4630   -0.9680 C.3     1  BEN1        0.1002
     15 C15_       -4.0040    3.5660   -0.0800 C.2     1  BEN1        0.2404
     16 O16_       -5.0540    4.1040   -0.3960 O.2     1  BEN1       -0.2732
     17 C17_       -3.8380    5.0110    1.8620 C.3     1  BEN1        0.0449
     18 H18_       -4.2460    1.5750    1.7370 H       1  BEN1        0.0314
     19 H19_       -3.3670    0.0450    1.5910 H       1  BEN1        0.0314
     20 H20_       -4.7220    0.7420   -0.4840 H       1  BEN1        0.0291
     21 H21_       -3.0150    0.3470   -0.8120 H       1  BEN1        0.0291
     22 N22_       -4.1450    2.4760   -2.2670 N.am    1  BEN1       -0.3025
     23 H23_       -2.3990    2.6670   -1.1040 H       1  BEN1        0.0595
     24  C1        -7.4880    4.2890    2.8000 C.ar    2  BEN2       -0.0537
     25  C2        -7.3240    3.2620    3.7340 C.ar    2  BEN2       -0.0170
     26  C3        -6.0420    2.8980    4.1530 C.ar    2  BEN2       -0.0537
     27  C4        -4.9220    3.4990    3.5720 C.ar    2  BEN2       -0.0565
     28  C5        -5.0810    4.4570    2.5650 C.ar    2  BEN2       -0.0297
     29  C6        -6.3670    4.8800    2.2110 C.ar    2  BEN2       -0.0565
     30  H1        -8.4840    4.6220    2.5250 H       2  BEN2        0.0624
     31  H3        -5.9140    2.1460    4.9250 H       2  BEN2        0.0624
     32  H4        -3.9280    3.2120    3.9010 H       2  BEN2        0.0621
     33 H34_       -4.0770    5.8920    1.2450 H       1  BEN1        0.0518
     34  H6        -6.5030    5.6630    1.4720 H       2  BEN2        0.0621
     35 H36_       -3.1310    5.3340    2.6410 H       1  BEN1        0.0518
     36  C1        -9.4680    3.2490    4.9920 C.ar    3  BEN3       -0.0532
     37  C2        -8.5010    2.5410    4.2720 C.ar    3  BEN3       -0.0026
     38  C3        -8.6360    1.1600    4.0770 C.ar    3  BEN3        0.0787
     39  C4        -9.6920    0.4840    4.6980 C.ar    3  BEN3       -0.0459
     40  C5       -10.6450    1.1870    5.4420 C.ar    3  BEN3       -0.0609
     41  C6       -10.5430    2.5740    5.5750 C.ar    3  BEN3       -0.0611
     42  H1        -9.3810    4.3260    5.1060 H       3  BEN3        0.0624
     43  H4        -9.7800   -0.5930    4.5990 H       3  BEN3        0.0626
     44  H5       -11.4640    0.6550    5.9160 H       3  BEN3        0.0618
     45  H6       -11.2960    3.1250    6.1310 H       3  BEN3        0.0618
     46  N1        -7.1000    0.8270    2.1390 N.ar    4  TET4       -0.0576
     47  N2        -6.3300   -0.1730    1.6680 N.ar    4  TET4        0.1370
     48  N3        -6.4790   -1.2110    2.5100 N.ar    4  TET4        0.0227
     49  N4        -7.3840   -0.8280    3.5340 N.ar    4  TET4       -0.0564
     50  C1        -7.6710    0.3690    3.2170 C.ar    4  TET4        0.3568
     51  H1        -7.2270    1.7480    1.7030 H       4  TET4        0.4932
     52 H52_       -5.0770    2.8450   -2.3210 H       1  BEN1        0.1495
     53 C53_       -3.5290    1.9790   -3.3610 C.2     1  BEN1        0.2330
     54 O54_       -2.3930    1.5360   -3.3170 O.2     1  BEN1       -0.2738
     55 C55_       -4.2940    1.9960   -4.6700 C.3     1  BEN1        0.0880
     56 C56_       -5.1680    0.7140   -4.7090 C.3     1  BEN1       -0.0387
     57 C57_       -3.3230    2.0290   -5.8830 C.3     1  BEN1       -0.0387
     58 N58_       -5.1860    3.1810   -4.6860 N.3     1  BEN1       -0.3178
     59 H59_       -4.5340   -0.1840   -4.6370 H       1  BEN1        0.0252
     60 H60_       -5.7410    0.6640   -5.6470 H       1  BEN1        0.0252
     61 H61_       -5.8760    0.7130   -3.8660 H       1  BEN1        0.0252
     62 H62_       -2.6790    1.1350   -5.8930 H       1  BEN1        0.0252
     63 H63_       -2.6810    2.9210   -5.8260 H       1  BEN1        0.0252
     64 H64_       -3.8870    2.0630   -6.8270 H       1  BEN1        0.0252
     65 H65_       -5.7960    3.1950   -5.5790 H       1  BEN1        0.1191
     66 H66_       -4.6100    4.0960   -4.6300 H       1  BEN1        0.1191
@<TRIPOS>BOND
     1     1     2   ar
     2     1     6   ar
     3     1     7    1
     4     2     3   ar
     5     2     8    1
     6     3     4   ar
     7     3     9    1
     8     4     5   ar
     9     4    10    1
    10     5     6   ar
    11     5    11    1
    12     6    12    1
    13    11    15   am
    14    11    17    1
    15    12    13    1
    16    12    18    1
    17    12    19    1
    18    13    14    1
    19    13    20    1
    20    13    21    1
    21    14    15    1
    22    14    22    1
    23    14    23    1
    24    15    16    2
    25    17    28    1
    26    17    33    1
    27    17    35    1
    28    22    52    1
    29    22    53   am
    30    24    25   ar
    31    24    29   ar
    32    24    30    1
    33    25    26   ar
    34    25    37    1
    35    26    27   ar
    36    26    31    1
    37    27    28   ar
    38    27    32    1
    39    28    29   ar
    40    29    34    1
    41    36    37   ar
    42    36    41   ar
    43    36    42    1
    44    37    38   ar
    45    38    39   ar
    46    38    50    1
    47    39    40   ar
    48    39    43    1
    49    40    41   ar
    50    40    44    1
    51    41    45    1
    52    46    47   ar
    53    46    50   ar
    54    46    51    1
    55    47    48   ar
    56    48    49   ar
    57    49    50   ar
    58    53    54    2
    59    53    55    1
    60    55    56    1
    61    55    57    1
    62    55    58    1
    63    56    59    1
    64    56    60    1
    65    56    61    1
    66    57    62    1
    67    57    63    1
    68    57    64    1
    69    58    65    1
    70    58    66    1
