@<TRIPOS>MOLECULE
GHSM.12.pdb
 78 82 0 0 0
SMALL
GASTEIGER

@<TRIPOS>ATOM
      1  C1        -0.9900    1.1670    1.8990 C.ar    1  BEN1       -0.0568
      2  C2         0.1820    1.8710    2.1840 C.ar    1  BEN1       -0.0614
      3  C3         0.2000    3.2650    2.0910 C.ar    1  BEN1       -0.0600
      4  C4        -0.9520    3.9520    1.6970 C.ar    1  BEN1       -0.0400
      5  C5        -2.1310    3.2500    1.4250 C.ar    1  BEN1        0.0398
      6  C6        -2.1540    1.8540    1.5370 C.ar    1  BEN1       -0.0259
      7 H7__       -0.9910    0.0830    1.9620 H       1  BEN1        0.0621
      8 H8__        1.0800    1.3360    2.4780 H       1  BEN1        0.0618
      9 H9__        1.1090    3.8140    2.3200 H       1  BEN1        0.0618
     10 H10_       -0.9230    5.0310    1.5950 H       1  BEN1        0.0636
     11 N11_       -3.3050    3.9490    1.0280 N.am    1  BEN1       -0.2653
     12 C12_       -3.4620    1.1010    1.2650 C.3     1  BEN1       -0.0238
     13 C13_       -3.7670    1.0800   -0.2560 C.3     1  BEN1       -0.0219
     14 C14_       -3.5060    2.4480   -0.9420 C.3     1  BEN1        0.1002
     15 C15_       -4.0100    3.5770   -0.0700 C.2     1  BEN1        0.2404
     16 O16_       -5.0500    4.1300   -0.3900 O.2     1  BEN1       -0.2732
     17 C17_       -3.8270    5.0270    1.8680 C.3     1  BEN1        0.0449
     18 H18_       -4.2730    1.6180    1.7990 H       1  BEN1        0.0314
     19 H19_       -3.4250    0.0710    1.6550 H       1  BEN1        0.0314
     20 H20_       -4.8230    0.7990   -0.4010 H       1  BEN1        0.0291
     21 H21_       -3.1430    0.3170   -0.7480 H       1  BEN1        0.0291
     22 N22_       -4.1720    2.4480   -2.2430 N.am    1  BEN1       -0.3039
     23 H23_       -2.4240    2.6130   -1.0840 H       1  BEN1        0.0595
     24  C1        -7.4790    4.2990    2.7980 C.ar    2  BEN2       -0.0537
     25  C2        -7.3150    3.2660    3.7260 C.ar    2  BEN2       -0.0170
     26  C3        -6.0320    2.9050    4.1470 C.ar    2  BEN2       -0.0537
     27  C4        -4.9140    3.5160    3.5750 C.ar    2  BEN2       -0.0565
     28  C5        -5.0720    4.4760    2.5700 C.ar    2  BEN2       -0.0297
     29  C6        -6.3590    4.8990    2.2170 C.ar    2  BEN2       -0.0565
     30 H30_       -4.0640    5.9100    1.2520 H       1  BEN1        0.0518
     31 H31_       -3.1150    5.3460    2.6450 H       1  BEN1        0.0518
     32 H32_       -5.0660    2.8890   -2.3190 H       1  BEN1        0.1494
     33 H33_       -8.4760    4.6280    2.5210 H       2  BEN2        0.0624
     34 H34_       -5.9030    2.1470    4.9130 H       2  BEN2        0.0624
     35 H35_       -3.9200    3.2340    3.9080 H       2  BEN2        0.0621
     36  C1        -9.4590    3.2420    4.9820 C.ar    3  BEN3       -0.0532
     37  C2        -8.4910    2.5380    4.2590 C.ar    3  BEN3       -0.0026
     38  C3        -8.6250    1.1580    4.0570 C.ar    3  BEN3        0.0787
     39  C4        -9.6840    0.4790    4.6710 C.ar    3  BEN3       -0.0459
     40  C5       -10.6380    1.1770    5.4170 C.ar    3  BEN3       -0.0609
     41  C6       -10.5350    2.5630    5.5590 C.ar    3  BEN3       -0.0611
     42 H42_       -6.4960    5.6880    1.4840 H       2  BEN2        0.0621
     43 H43_       -9.3720    4.3170    5.1030 H       3  BEN3        0.0624
     44 H44_       -9.7720   -0.5980    4.5650 H       3  BEN3        0.0626
     45 H45_      -11.4600    0.6420    5.8850 H       3  BEN3        0.0618
     46  N1        -7.0800    0.8270    2.1270 N.ar    4  TET4       -0.0576
     47  N2        -6.3140   -0.1770    1.6550 N.ar    4  TET4        0.1370
     48  N3        -6.4720   -1.2170    2.4910 N.ar    4  TET4        0.0227
     49  N4        -7.3790   -0.8330    3.5120 N.ar    4  TET4       -0.0564
     50  C1        -7.6590    0.3670    3.1990 C.ar    4  TET4        0.3568
     51 H51_      -11.2880    3.1110    6.1180 H       3  BEN3        0.0618
     52 H52_       -7.1990    1.7510    1.6940 H       4  TET4        0.4932
     53 C53_       -3.6070    1.8090   -3.2860 C.2     1  BEN1        0.2154
     54 O54_       -2.5370    1.2340   -3.1740 O.2     1  BEN1       -0.2757
     55 C55_       -4.2950    1.8000   -4.6280 C.3     1  BEN1        0.0417
     56 C56_       -5.7120    1.1550   -4.5510 C.3     1  BEN1        0.0218
     57 H57_       -3.6750    1.2240   -5.3330 H       1  BEN1        0.0376
     58 H58_       -4.3330    2.8300   -5.0040 H       1  BEN1        0.0376
     59 C59_       -5.5670   -0.2860   -3.9740 C.3     1  BEN1       -0.0466
     60 N60_       -6.6080    1.9290   -3.6450 N.3     1  BEN1       -0.3106
     61 C61_       -6.3160    1.0600   -5.9820 C.3     1  BEN1       -0.0466
     62 H62_       -7.4530    1.3240   -3.3390 H       1  BEN1        0.1224
     63  C63       -7.0880    3.2740   -4.0570 C.3     1  BEN1       -0.0039
     64 H64_       -4.8280   -0.8700   -4.5450 H       1  BEN1        0.0247
     65 H65_       -6.5270   -0.8220   -4.0130 H       1  BEN1        0.0247
     66 H66_       -5.2420   -0.2480   -2.9230 H       1  BEN1        0.0247
     67 H67_       -6.3060    2.0390   -6.4830 H       1  BEN1        0.0247
     68 H68_       -7.3540    0.6990   -5.9320 H       1  BEN1        0.0247
     69 H69_       -5.7350    0.3600   -6.6020 H       1  BEN1        0.0247
     70  H70       -7.7440    3.1940   -4.9390 H       1  BEN1        0.0424
     71  H71       -6.2490    3.9380   -4.3100 H       1  BEN1        0.0424
     72  C72       -7.9050    3.9390   -2.9160 C.3     1  BEN1       -0.0433
     73  C73       -8.3950    5.3540   -3.3210 C.3     1  BEN1       -0.0641
     74  H74       -7.2820    4.0160   -2.0100 H       1  BEN1        0.0275
     75  H75       -8.7810    3.3130   -2.6750 H       1  BEN1        0.0275
     76  H76       -7.5380    6.0100   -3.5400 H       1  BEN1        0.0230
     77  H77       -8.9790    5.8030   -2.5020 H       1  BEN1        0.0230
     78  H78       -9.0340    5.2980   -4.2160 H       1  BEN1        0.0230
@<TRIPOS>BOND
     1     1     2   ar
     2     1     6   ar
     3     1     7    1
     4     2     8    1
     5     2     3   ar
     6     3     4   ar
     7     3     9    1
     8     4     5   ar
     9     4    10    1
    10     5     6   ar
    11     5    11    1
    12     6    12    1
    13    11    15   am
    14    11    17    1
    15    12    13    1
    16    12    18    1
    17    12    19    1
    18    13    14    1
    19    13    20    1
    20    13    21    1
    21    14    15    1
    22    14    22    1
    23    14    23    1
    24    15    16    2
    25    17    30    1
    26    17    31    1
    27    17    28    1
    28    22    32    1
    29    22    53   am
    30    24    25   ar
    31    24    29   ar
    32    24    33    1
    33    25    26   ar
    34    25    37    1
    35    26    27   ar
    36    26    34    1
    37    27    28   ar
    38    27    35    1
    39    28    29   ar
    40    29    42    1
    41    36    37   ar
    42    36    41   ar
    43    36    43    1
    44    37    38   ar
    45    38    39   ar
    46    38    50    1
    47    39    40   ar
    48    39    44    1
    49    40    41   ar
    50    40    45    1
    51    41    51    1
    52    46    47   ar
    53    46    50   ar
    54    46    52    1
    55    47    48   ar
    56    48    49   ar
    57    49    50   ar
    58    53    54    2
    59    53    55    1
    60    55    56    1
    61    55    57    1
    62    55    58    1
    63    56    59    1
    64    56    60    1
    65    56    61    1
    66    59    64    1
    67    59    65    1
    68    59    66    1
    69    60    62    1
    70    60    63    1
    71    61    67    1
    72    61    68    1
    73    61    69    1
    74    63    70    1
    75    63    71    1
    76    63    72    1
    77    72    73    1
    78    72    74    1
    79    72    75    1
    80    73    76    1
    81    73    77    1
    82    73    78    1
