@<TRIPOS>MOLECULE
GHSM.9.pdb
 69 73 0 0 0
SMALL
GASTEIGER

@<TRIPOS>ATOM
      1  C1        -0.9580    1.1970    1.9140 C.ar    1  BEN1       -0.0568
      2  C2         0.1970    1.9230    2.2190 C.ar    1  BEN1       -0.0614
      3  C3         0.1920    3.3160    2.1200 C.ar    1  BEN1       -0.0600
      4  C4        -0.9660    3.9820    1.7080 C.ar    1  BEN1       -0.0400
      5  C5        -2.1300    3.2600    1.4250 C.ar    1  BEN1        0.0398
      6  C6        -2.1270    1.8640    1.5300 C.ar    1  BEN1       -0.0259
      7  H1        -0.9400    0.1140    1.9780 H       1  BEN1        0.0621
      8  H2         1.0980    1.4030    2.5310 H       1  BEN1        0.0618
      9  H3         1.0880    3.8810    2.3610 H       1  BEN1        0.0618
     10  H4        -0.9520    5.0610    1.6010 H       1  BEN1        0.0636
     11 N11_       -3.3140    3.9410    1.0230 N.am    1  BEN1       -0.2653
     12 C12_       -3.4120    1.0840    1.2270 C.3     1  BEN1       -0.0238
     13 C13_       -3.6760    1.0650   -0.3010 C.3     1  BEN1       -0.0219
     14 C14_       -3.4780    2.4550   -0.9610 C.3     1  BEN1        0.1002
     15 C15_       -4.0080    3.5630   -0.0790 C.2     1  BEN1        0.2404
     16 O16_       -5.0600    4.0960   -0.3950 O.2     1  BEN1       -0.2732
     17 C17_       -3.8470    5.0210    1.8530 C.3     1  BEN1        0.0449
     18 H18_       -4.2470    1.5800    1.7460 H       1  BEN1        0.0314
     19 H19_       -3.3610    0.0530    1.6120 H       1  BEN1        0.0314
     20 H20_       -4.7110    0.7260   -0.4700 H       1  BEN1        0.0291
     21 H21_       -3.0000    0.3450   -0.7910 H       1  BEN1        0.0291
     22 N22_       -4.1620    2.4520   -2.2530 N.am    1  BEN1       -0.3035
     23 H23_       -2.4040    2.6660   -1.1050 H       1  BEN1        0.0595
     24  C1        -7.4900    4.2950    2.8120 C.ar    2  BEN2       -0.0537
     25  C2        -7.3200    3.2630    3.7390 C.ar    2  BEN2       -0.0170
     26  C3        -6.0350    2.8970    4.1490 C.ar    2  BEN2       -0.0537
     27  C4        -4.9200    3.5020    3.5660 C.ar    2  BEN2       -0.0565
     28  C5        -5.0850    4.4640    2.5640 C.ar    2  BEN2       -0.0297
     29  C6        -6.3730    4.8900    2.2200 C.ar    2  BEN2       -0.0565
     30  H1        -8.4880    4.6290    2.5450 H       2  BEN2        0.0624
     31  H3        -5.9030    2.1400    4.9160 H       2  BEN2        0.0624
     32  H4        -3.9230    3.2160    3.8890 H       2  BEN2        0.0621
     33 H34_       -4.0920    5.8960    1.2290 H       1  BEN1        0.0518
     34  H6        -6.5130    5.6770    1.4860 H       2  BEN2        0.0621
     35 H36_       -3.1410    5.3550    2.6280 H       1  BEN1        0.0518
     36  C1        -9.4570    3.2420    5.0080 C.ar    3  BEN3       -0.0532
     37  C2        -8.4950    2.5380    4.2780 C.ar    3  BEN3       -0.0026
     38  C3        -8.6320    1.1580    4.0740 C.ar    3  BEN3        0.0787
     39  C4        -9.6860    0.4800    4.6940 C.ar    3  BEN3       -0.0459
     40  C5       -10.6350    1.1770    5.4480 C.ar    3  BEN3       -0.0609
     41  C6       -10.5310    2.5630    5.5900 C.ar    3  BEN3       -0.0611
     42  H1        -9.3690    4.3170    5.1290 H       3  BEN3        0.0624
     43  H4        -9.7760   -0.5970    4.5880 H       3  BEN3        0.0626
     44  H5       -11.4540    0.6430    5.9210 H       3  BEN3        0.0618
     45  H6       -11.2800    3.1110    6.1540 H       3  BEN3        0.0618
     46  N1        -7.1020    0.8360    2.1290 N.ar    4  TET4       -0.0576
     47  N2        -6.3360   -0.1630    1.6490 N.ar    4  TET4        0.1370
     48  N3        -6.4840   -1.2060    2.4830 N.ar    4  TET4        0.0227
     49  N4        -7.3850   -0.8280    3.5130 N.ar    4  TET4       -0.0564
     50  C1        -7.6700    0.3710    3.2050 C.ar    4  TET4        0.3568
     51  H1        -7.2280    1.7600    1.6990 H       4  TET4        0.4932
     52 H52_       -5.1120    2.7730   -2.2780 H       1  BEN1        0.1495
     53 C53_       -3.5500    1.9580   -3.3510 C.2     1  BEN1        0.2205
     54 O54_       -2.4120    1.5200   -3.2960 O.2     1  BEN1       -0.2752
     55 C55_       -4.3040    1.9400   -4.6690 C.3     1  BEN1        0.0536
     56 C56_       -3.4700    1.2020   -5.7590 C.3     1  BEN1       -0.0503
     57 C57_       -4.5520    3.4030   -5.1410 C.3     1  BEN1       -0.0503
     58 C58_       -5.6430    1.1750   -4.4470 C.3     1  BEN1        0.0065
     59 H59_       -2.5070    1.7120   -5.9230 H       1  BEN1        0.0240
     60 H60_       -4.0130    1.1780   -6.7160 H       1  BEN1        0.0240
     61 H61_       -3.2610    0.1650   -5.4530 H       1  BEN1        0.0240
     62 H62_       -3.5910    3.9050   -5.3320 H       1  BEN1        0.0240
     63 H63_       -5.0920    3.9970   -4.3890 H       1  BEN1        0.0240
     64 H64_       -5.1400    3.4090   -6.0720 H       1  BEN1        0.0240
     65 H65_       -6.1890    1.0710   -5.4010 H       1  BEN1        0.0432
     66 N66_       -6.4970    1.8480   -3.4390 N.3     1  BEN1       -0.3290
     67 H67_       -5.3930    0.1600   -4.0920 H       1  BEN1        0.0432
     68 H68_       -7.2020    1.1480   -3.0060 H       1  BEN1        0.1182
     69 H69_       -7.0510    2.6640   -3.8860 H       1  BEN1        0.1182
@<TRIPOS>BOND
     1     1     2   ar
     2     1     6   ar
     3     1     7    1
     4     2     3   ar
     5     2     8    1
     6     3     4   ar
     7     3     9    1
     8     4     5   ar
     9     4    10    1
    10     5     6   ar
    11     5    11    1
    12     6    12    1
    13    11    15   am
    14    11    17    1
    15    12    13    1
    16    12    18    1
    17    12    19    1
    18    13    14    1
    19    13    20    1
    20    13    21    1
    21    14    15    1
    22    14    22    1
    23    14    23    1
    24    15    16    2
    25    17    28    1
    26    17    33    1
    27    17    35    1
    28    22    52    1
    29    22    53   am
    30    24    25   ar
    31    24    29   ar
    32    24    30    1
    33    25    26   ar
    34    25    37    1
    35    26    27   ar
    36    26    31    1
    37    27    28   ar
    38    27    32    1
    39    28    29   ar
    40    29    34    1
    41    36    37   ar
    42    36    41   ar
    43    36    42    1
    44    37    38   ar
    45    38    39   ar
    46    38    50    1
    47    39    40   ar
    48    39    43    1
    49    40    41   ar
    50    40    44    1
    51    41    45    1
    52    46    47   ar
    53    46    50   ar
    54    46    51    1
    55    47    48   ar
    56    48    49   ar
    57    49    50   ar
    58    53    54    2
    59    53    55    1
    60    55    56    1
    61    55    57    1
    62    55    58    1
    63    56    59    1
    64    56    60    1
    65    56    61    1
    66    57    62    1
    67    57    63    1
    68    57    64    1
    69    58    65    1
    70    58    66    1
    71    58    67    1
    72    66    68    1
    73    66    69    1
