@<TRIPOS>MOLECULE
GHSM.29.pdb
 76 80 0 0 0
SMALL
GASTEIGER

@<TRIPOS>ATOM
      1  C1        -0.9580    1.2070    1.9150 C.ar    1  BEN1       -0.0568
      2  C2         0.2020    1.9320    2.1990 C.ar    1  BEN1       -0.0614
      3  C3         0.2000    3.3250    2.0880 C.ar    1  BEN1       -0.0600
      4  C4        -0.9610    3.9900    1.6850 C.ar    1  BEN1       -0.0400
      5  C5        -2.1300    3.2680    1.4200 C.ar    1  BEN1        0.0398
      6  C6        -2.1290    1.8730    1.5390 C.ar    1  BEN1       -0.0259
      7  H1        -0.9420    0.1240    1.9900 H       1  BEN1        0.0621
      8  H2         1.1060    1.4130    2.5050 H       1  BEN1        0.0618
      9  H3         1.1000    3.8890    2.3130 H       1  BEN1        0.0618
     10  H4        -0.9480    5.0680    1.5690 H       1  BEN1        0.0636
     11 N11_       -3.3160    3.9480    1.0240 N.am    1  BEN1       -0.2653
     12 C12_       -3.4210    1.0970    1.2570 C.3     1  BEN1       -0.0238
     13 C13_       -3.7000    1.0660   -0.2670 C.3     1  BEN1       -0.0219
     14 C14_       -3.4950    2.4470   -0.9460 C.3     1  BEN1        0.1002
     15 C15_       -4.0160    3.5690   -0.0740 C.2     1  BEN1        0.2404
     16 O16_       -5.0620    4.1140   -0.3900 O.2     1  BEN1       -0.2732
     17 C17_       -3.8430    5.0280    1.8570 C.3     1  BEN1        0.0449
     18 H18_       -4.2480    1.6010    1.7790 H       1  BEN1        0.0314
     19 H19_       -3.3700    0.0690    1.6510 H       1  BEN1        0.0314
     20 H20_       -4.7400    0.7370   -0.4190 H       1  BEN1        0.0291
     21 H21_       -3.0390    0.3320   -0.7570 H       1  BEN1        0.0291
     22 N22_       -4.1680    2.4240   -2.2420 N.am    1  BEN1       -0.3025
     23 H23_       -2.4210    2.6470   -1.0950 H       1  BEN1        0.0595
     24  C1        -7.4870    4.2970    2.8080 C.ar    2  BEN2       -0.0537
     25  C2        -7.3170    3.2660    3.7370 C.ar    2  BEN2       -0.0170
     26  C3        -6.0330    2.9050    4.1520 C.ar    2  BEN2       -0.0537
     27  C4        -4.9170    3.5180    3.5770 C.ar    2  BEN2       -0.0565
     28  C5        -5.0810    4.4720    2.5670 C.ar    2  BEN2       -0.0297
     29  C6        -6.3700    4.8900    2.2150 C.ar    2  BEN2       -0.0565
     30  H1        -8.4850    4.6300    2.5390 H       2  BEN2        0.0624
     31  H3        -5.9000    2.1470    4.9180 H       2  BEN2        0.0624
     32  H4        -3.9210    3.2430    3.9100 H       2  BEN2        0.0621
     33 H34_       -4.0850    5.9060    1.2370 H       1  BEN1        0.0518
     34  H6        -6.5100    5.6720    1.4760 H       2  BEN2        0.0621
     35 H36_       -3.1330    5.3540    2.6330 H       1  BEN1        0.0518
     36  C1        -9.4570    3.2360    5.0000 C.ar    3  BEN3       -0.0532
     37  C2        -8.4910    2.5360    4.2720 C.ar    3  BEN3       -0.0026
     38  C3        -8.6210    1.1560    4.0670 C.ar    3  BEN3        0.0787
     39  C4        -9.6680    0.4720    4.6940 C.ar    3  BEN3       -0.0459
     40  C5       -10.6180    1.1640    5.4510 C.ar    3  BEN3       -0.0609
     41  C6       -10.5240    2.5510    5.5890 C.ar    3  BEN3       -0.0611
     42  H1        -9.3770    4.3120    5.1170 H       3  BEN3        0.0624
     43  H4        -9.7510   -0.6060    4.5900 H       3  BEN3        0.0626
     44  H5       -11.4300    0.6250    5.9300 H       3  BEN3        0.0618
     45  H6       -11.2750    3.0950    6.1540 H       3  BEN3        0.0618
     46  N1        -7.1010    0.8420    2.1150 N.ar    4  TET4       -0.0576
     47  N2        -6.3350   -0.1540    1.6280 N.ar    4  TET4        0.1370
     48  N3        -6.4760   -1.1990    2.4610 N.ar    4  TET4        0.0227
     49  N4        -7.3690   -0.8250    3.4980 N.ar    4  TET4       -0.0564
     50  C1        -7.6600    0.3740    3.1940 C.ar    4  TET4        0.3568
     51  H1        -7.2300    1.7670    1.6890 H       4  TET4        0.4932
     52 H52_       -5.1130    2.7670   -2.2930 H       1  BEN1        0.1495
     53 C53_       -3.5720    1.8550   -3.3120 C.2     1  BEN1        0.2333
     54 O54_       -2.4550    1.3670   -3.2460 O.2     1  BEN1       -0.2738
     55 C55_       -4.3470    1.8190   -4.6150 C.3     1  BEN1        0.0905
     56 C56_       -3.8220    0.7040   -5.5600 C.3     1  BEN1       -0.0385
     57 C57_       -4.1790    3.2130   -5.2800 C.3     1  BEN1       -0.0385
     58 N58_       -5.7840    1.6130   -4.3140 N.3     1  BEN1       -0.3011
     59 H59_       -2.7690    0.8840   -5.8260 H       1  BEN1        0.0252
     60 H60_       -4.4170    0.6770   -6.4860 H       1  BEN1        0.0252
     61 H61_       -3.8950   -0.2770   -5.0690 H       1  BEN1        0.0252
     62 H62_       -3.1140    3.4320   -5.4500 H       1  BEN1        0.0252
     63 H63_       -4.5980    3.9950   -4.6280 H       1  BEN1        0.0252
     64 H64_       -4.7020    3.2490   -6.2470 H       1  BEN1        0.0252
     65  C65       -6.1920    0.4280   -3.5220 C.3     1  BEN1        0.0226
     66 H66_       -6.3990    1.7250   -5.2000 H       1  BEN1        0.1230
     67  H67       -6.5590   -0.3790   -4.1780 H       1  BEN1        0.0449
     68  C68       -7.2970    0.8760   -2.5310 C.3     1  BEN1        0.0649
     69  H69       -5.3550    0.0250   -2.9320 H       1  BEN1        0.0449
     70  C70       -7.7670   -0.3050   -1.6410 C.3     1  BEN1       -0.0377
     71  H71       -8.1480    1.2620   -3.1210 H       1  BEN1        0.0603
     72  O72       -6.7520    1.9300   -1.7140 O.3     1  BEN1       -0.3908
     73  H73       -8.1640   -1.1210   -2.2640 H       1  BEN1        0.0255
     74  H74       -8.5590    0.0280   -0.9530 H       1  BEN1        0.0255
     75  H75       -6.9260   -0.6900   -1.0450 H       1  BEN1        0.0255
     76  H76       -7.3860    2.3040   -1.1100 H       1  BEN1        0.2098
@<TRIPOS>BOND
     1     1     2   ar
     2     1     6   ar
     3     1     7    1
     4     2     3   ar
     5     2     8    1
     6     3     4   ar
     7     3     9    1
     8     4     5   ar
     9     4    10    1
    10     5     6   ar
    11     5    11    1
    12     6    12    1
    13    11    15   am
    14    11    17    1
    15    12    13    1
    16    12    18    1
    17    12    19    1
    18    13    14    1
    19    13    20    1
    20    13    21    1
    21    14    15    1
    22    14    22    1
    23    14    23    1
    24    15    16    2
    25    17    28    1
    26    17    33    1
    27    17    35    1
    28    22    52    1
    29    22    53   am
    30    24    25   ar
    31    24    29   ar
    32    24    30    1
    33    25    26   ar
    34    25    37    1
    35    26    27   ar
    36    26    31    1
    37    27    28   ar
    38    27    32    1
    39    28    29   ar
    40    29    34    1
    41    36    37   ar
    42    36    41   ar
    43    36    42    1
    44    37    38   ar
    45    38    39   ar
    46    38    50    1
    47    39    40   ar
    48    39    43    1
    49    40    41   ar
    50    40    44    1
    51    41    45    1
    52    46    47   ar
    53    46    50   ar
    54    46    51    1
    55    47    48   ar
    56    48    49   ar
    57    49    50   ar
    58    53    54    2
    59    53    55    1
    60    55    56    1
    61    55    57    1
    62    55    58    1
    63    56    59    1
    64    56    60    1
    65    56    61    1
    66    57    62    1
    67    57    63    1
    68    57    64    1
    69    58    65    1
    70    58    66    1
    71    65    67    1
    72    65    68    1
    73    65    69    1
    74    68    70    1
    75    68    71    1
    76    68    72    1
    77    70    73    1
    78    70    74    1
    79    70    75    1
    80    72    76    1
