@<TRIPOS>MOLECULE
GHSM.5.pdb
 66 70 0 0 0
SMALL
GASTEIGER

@<TRIPOS>ATOM
      1  C1        -0.9830    1.1630    1.9060 C.ar    1  BEN1       -0.0568
      2  C2         0.1800    1.8730    2.2140 C.ar    1  BEN1       -0.0614
      3  C3         0.1910    3.2670    2.1260 C.ar    1  BEN1       -0.0600
      4  C4        -0.9590    3.9490    1.7180 C.ar    1  BEN1       -0.0400
      5  C5        -2.1310    3.2430    1.4300 C.ar    1  BEN1        0.0398
      6  C6        -2.1450    1.8450    1.5290 C.ar    1  BEN1       -0.0259
      7 H7__       -0.9780    0.0790    1.9620 H       1  BEN1        0.0621
      8 H8__        1.0760    1.3410    2.5210 H       1  BEN1        0.0618
      9 H9__        1.0930    3.8200    2.3700 H       1  BEN1        0.0618
     10 H10_       -0.9330    5.0290    1.6190 H       1  BEN1        0.0636
     11 N11_       -3.3070    3.9390    1.0290 N.am    1  BEN1       -0.2653
     12 C12_       -3.4420    1.0850    1.2270 C.3     1  BEN1       -0.0238
     13 C13_       -3.7180    1.0760   -0.2990 C.3     1  BEN1       -0.0219
     14 C14_       -3.4850    2.4610   -0.9610 C.3     1  BEN1        0.1002
     15 C15_       -4.0000    3.5750   -0.0780 C.2     1  BEN1        0.2404
     16 O16_       -5.0400    4.1260   -0.4010 O.2     1  BEN1       -0.2732
     17 C17_       -3.8330    5.0170    1.8640 C.3     1  BEN1        0.0449
     18 H18_       -4.2650    1.5900    1.7540 H       1  BEN1        0.0314
     19 H19_       -3.4030    0.0510    1.6070 H       1  BEN1        0.0314
     20 H20_       -4.7650    0.7710   -0.4570 H       1  BEN1        0.0291
     21 H21_       -3.0700    0.3350   -0.7960 H       1  BEN1        0.0291
     22 N22_       -4.1480    2.4870   -2.2640 N.am    1  BEN1       -0.3027
     23 H23_       -2.4050    2.6430   -1.0980 H       1  BEN1        0.0595
     24  C1        -7.4840    4.2880    2.7930 C.ar    2  BEN2       -0.0537
     25  C2        -7.3210    3.2620    3.7280 C.ar    2  BEN2       -0.0170
     26  C3        -6.0390    2.9020    4.1520 C.ar    2  BEN2       -0.0537
     27  C4        -4.9190    3.5060    3.5760 C.ar    2  BEN2       -0.0565
     28  C5        -5.0760    4.4620    2.5670 C.ar    2  BEN2       -0.0297
     29  C6        -6.3620    4.8820    2.2080 C.ar    2  BEN2       -0.0565
     30 H30_       -4.0710    5.8980    1.2470 H       1  BEN1        0.0518
     31 H31_       -3.1250    5.3400    2.6430 H       1  BEN1        0.0518
     32 H32_       -5.0510    2.9200   -2.3320 H       1  BEN1        0.1495
     33 H33_       -8.4790    4.6170    2.5120 H       2  BEN2        0.0624
     34 H34_       -5.9120    2.1500    4.9250 H       2  BEN2        0.0624
     35 H35_       -3.9250    3.2230    3.9090 H       2  BEN2        0.0621
     36  C1        -9.4670    3.2510    4.9810 C.ar    3  BEN3       -0.0532
     37  C2        -8.4980    2.5410    4.2650 C.ar    3  BEN3       -0.0026
     38  C3        -8.6330    1.1600    4.0720 C.ar    3  BEN3        0.0787
     39  C4        -9.6910    0.4850    4.6940 C.ar    3  BEN3       -0.0459
     40  C5       -10.6450    1.1890    5.4340 C.ar    3  BEN3       -0.0609
     41  C6       -10.5440    2.5770    5.5630 C.ar    3  BEN3       -0.0611
     42 H42_       -6.4970    5.6650    1.4690 H       2  BEN2        0.0621
     43 H43_       -9.3820    4.3280    5.0910 H       3  BEN3        0.0624
     44 H44_       -9.7770   -0.5930    4.5980 H       3  BEN3        0.0626
     45 H45_      -11.4650    0.6580    5.9080 H       3  BEN3        0.0618
     46  N1        -7.0960    0.8210    2.1380 N.ar    4  TET4       -0.0576
     47  N2        -6.3270   -0.1810    1.6690 N.ar    4  TET4        0.1370
     48  N3        -6.4780   -1.2170    2.5120 N.ar    4  TET4        0.0227
     49  N4        -7.3830   -0.8310    3.5350 N.ar    4  TET4       -0.0564
     50  C1        -7.6680    0.3660    3.2150 C.ar    4  TET4        0.3568
     51 H51_      -11.2980    3.1290    6.1150 H       3  BEN3        0.0618
     52 H52_       -7.2210    1.7420    1.7000 H       4  TET4        0.4932
     53 C53_       -3.5620    1.9180   -3.3370 C.2     1  BEN1        0.2304
     54 O54_       -2.4710    1.3760   -3.2680 O.2     1  BEN1       -0.2741
     55 C55_       -4.2850    1.9630   -4.6640 C.3     1  BEN1        0.0820
     56 H56_       -3.5250    2.0690   -5.4580 H       1  BEN1        0.0554
     57 C57_       -5.0590    0.6320   -4.8830 C.3     1  BEN1       -0.0321
     58 N58_       -5.2140    3.1180   -4.7040 N.3     1  BEN1       -0.3199
     59 H59_       -4.3460   -0.2090   -4.8640 H       1  BEN1        0.0282
     60 H60_       -5.5330    0.6520   -5.8780 H       1  BEN1        0.0282
     61 C61_       -6.1520    0.3970   -3.8080 C.3     1  BEN1       -0.0634
     62 H62_       -5.7670    3.1360   -5.6330 H       1  BEN1        0.1189
     63 H63_       -4.6700    4.0480   -4.5970 H       1  BEN1        0.1189
     64 H64_       -6.8620    1.2380   -3.7870 H       1  BEN1        0.0230
     65 H65_       -5.7010    0.2870   -2.8110 H       1  BEN1        0.0230
     66 H66_       -6.7090   -0.5250   -4.0370 H       1  BEN1        0.0230
@<TRIPOS>BOND
     1     1     2   ar
     2     1     6   ar
     3     1     7    1
     4     2     8    1
     5     2     3   ar
     6     3     4   ar
     7     3     9    1
     8     4     5   ar
     9     4    10    1
    10     5     6   ar
    11     5    11    1
    12     6    12    1
    13    11    15   am
    14    11    17    1
    15    12    13    1
    16    12    18    1
    17    12    19    1
    18    13    14    1
    19    13    20    1
    20    13    21    1
    21    14    15    1
    22    14    22    1
    23    14    23    1
    24    15    16    2
    25    17    30    1
    26    17    31    1
    27    17    28    1
    28    22    32    1
    29    22    53   am
    30    24    25   ar
    31    24    29   ar
    32    24    33    1
    33    25    26   ar
    34    25    37    1
    35    26    27   ar
    36    26    34    1
    37    27    28   ar
    38    27    35    1
    39    28    29   ar
    40    29    42    1
    41    36    37   ar
    42    36    41   ar
    43    36    43    1
    44    37    38   ar
    45    38    39   ar
    46    38    50    1
    47    39    40   ar
    48    39    44    1
    49    40    41   ar
    50    40    45    1
    51    41    51    1
    52    46    47   ar
    53    46    50   ar
    54    46    52    1
    55    47    48   ar
    56    48    49   ar
    57    49    50   ar
    58    53    54    2
    59    53    55    1
    60    55    56    1
    61    55    57    1
    62    55    58    1
    63    57    59    1
    64    57    60    1
    65    57    61    1
    66    58    62    1
    67    58    63    1
    68    61    64    1
    69    61    65    1
    70    61    66    1
