@<TRIPOS>MOLECULE
GHSM.8.pdb
 60 64 0 0 0
SMALL
GASTEIGER

@<TRIPOS>ATOM
      1  C1        -0.9920    1.1500    1.9050 C.ar    1  BEN1       -0.0568
      2  C2         0.1720    1.8570    2.2210 C.ar    1  BEN1       -0.0614
      3  C3         0.1870    3.2510    2.1360 C.ar    1  BEN1       -0.0600
      4  C4        -0.9600    3.9370    1.7260 C.ar    1  BEN1       -0.0400
      5  C5        -2.1320    3.2340    1.4310 C.ar    1  BEN1        0.0398
      6  C6        -2.1500    1.8370    1.5230 C.ar    1  BEN1       -0.0259
      7 H7__       -0.9890    0.0660    1.9590 H       1  BEN1        0.0621
      8 H8__        1.0650    1.3220    2.5320 H       1  BEN1        0.0618
      9 H9__        1.0900    3.8010    2.3860 H       1  BEN1        0.0618
     10 H10_       -0.9310    5.0170    1.6290 H       1  BEN1        0.0636
     11 N11_       -3.3050    3.9330    1.0290 N.am    1  BEN1       -0.2653
     12 C12_       -3.4460    1.0810    1.2080 C.3     1  BEN1       -0.0238
     13 C13_       -3.7080    1.0790   -0.3210 C.3     1  BEN1       -0.0219
     14 C14_       -3.4710    2.4690   -0.9730 C.3     1  BEN1        0.1002
     15 C15_       -3.9910    3.5780   -0.0850 C.2     1  BEN1        0.2404
     16 O16_       -5.0290    4.1330   -0.4120 O.2     1  BEN1       -0.2732
     17 C17_       -3.8310    5.0100    1.8660 C.3     1  BEN1        0.0449
     18 H18_       -4.2740    1.5850    1.7300 H       1  BEN1        0.0314
     19 H19_       -3.4130    0.0450    1.5840 H       1  BEN1        0.0314
     20 H20_       -4.7520    0.7710   -0.4970 H       1  BEN1        0.0291
     21 H21_       -3.0500    0.3430   -0.8110 H       1  BEN1        0.0291
     22 N22_       -4.1220    2.5060   -2.2810 N.am    1  BEN1       -0.3029
     23 H23_       -2.3900    2.6510   -1.1030 H       1  BEN1        0.0595
     24  C1        -7.4860    4.2840    2.7900 C.ar    2  BEN2       -0.0537
     25  C2        -7.3240    3.2600    3.7270 C.ar    2  BEN2       -0.0170
     26  C3        -6.0420    2.8960    4.1490 C.ar    2  BEN2       -0.0537
     27  C4        -4.9220    3.4960    3.5700 C.ar    2  BEN2       -0.0565
     28  C5        -5.0780    4.4550    2.5630 C.ar    2  BEN2       -0.0297
     29  C6        -6.3630    4.8760    2.2040 C.ar    2  BEN2       -0.0565
     30 H30_       -4.0670    5.8930    1.2510 H       1  BEN1        0.0518
     31 H31_       -3.1250    5.3300    2.6470 H       1  BEN1        0.0518
     32 H32_       -5.0060    2.9750   -2.3630 H       1  BEN1        0.1495
     33 H33_       -8.4810    4.6130    2.5090 H       2  BEN2        0.0624
     34 H34_       -5.9160    2.1450    4.9220 H       2  BEN2        0.0624
     35 H35_       -3.9280    3.2080    3.8990 H       2  BEN2        0.0621
     36  C1        -9.4670    3.2570    4.9870 C.ar    3  BEN3       -0.0532
     37  C2        -8.5020    2.5420    4.2700 C.ar    3  BEN3       -0.0026
     38  C3        -8.6400    1.1610    4.0810 C.ar    3  BEN3        0.0787
     39  C4        -9.6980    0.4910    4.7060 C.ar    3  BEN3       -0.0459
     40  C5       -10.6480    1.1990    5.4480 C.ar    3  BEN3       -0.0609
     41  C6       -10.5430    2.5860    5.5730 C.ar    3  BEN3       -0.0611
     42 H42_       -6.4980    5.6590    1.4640 H       2  BEN2        0.0621
     43 H43_       -9.3780    4.3330    5.0950 H       3  BEN3        0.0624
     44 H44_       -9.7880   -0.5870    4.6130 H       3  BEN3        0.0626
     45 H45_      -11.4690    0.6710    5.9250 H       3  BEN3        0.0618
     46  N1        -7.1050    0.8140    2.1460 N.ar    4  TET4       -0.0576
     47  N2        -6.3380   -0.1910    1.6800 N.ar    4  TET4        0.1370
     48  N3        -6.4900   -1.2240    2.5260 N.ar    4  TET4        0.0227
     49  N4        -7.3940   -0.8340    3.5490 N.ar    4  TET4       -0.0564
     50  C1        -7.6770    0.3620    3.2260 C.ar    4  TET4        0.3568
     51 H51_      -11.2940    3.1420    6.1270 H       3  BEN3        0.0618
     52 H52_       -7.2280    1.7330    1.7060 H       4  TET4        0.4932
     53 C53_       -3.5520    1.8970   -3.3400 C.2     1  BEN1        0.2273
     54 O54_       -2.4900    1.3030   -3.2540 O.2     1  BEN1       -0.2744
     55 C55_       -4.2660    1.9470   -4.6680 C.3     1  BEN1        0.0707
     56 H56_       -4.8440    1.0140   -4.7570 H       1  BEN1        0.0518
     57 H57_       -3.5190    1.9760   -5.4780 H       1  BEN1        0.0518
     58 N58_       -5.1750    3.1140   -4.7440 N.3     1  BEN1       -0.3225
     59 H59_       -5.7530    3.0890   -5.6590 H       1  BEN1        0.1186
     60 H60_       -4.6120    4.0380   -4.7020 H       1  BEN1        0.1186
@<TRIPOS>BOND
     1     1     2   ar
     2     1     6   ar
     3     1     7    1
     4     2     8    1
     5     2     3   ar
     6     3     4   ar
     7     3     9    1
     8     4     5   ar
     9     4    10    1
    10     5     6   ar
    11     5    11    1
    12     6    12    1
    13    11    15   am
    14    11    17    1
    15    12    13    1
    16    12    18    1
    17    12    19    1
    18    13    14    1
    19    13    20    1
    20    13    21    1
    21    14    15    1
    22    14    22    1
    23    14    23    1
    24    15    16    2
    25    17    30    1
    26    17    31    1
    27    17    28    1
    28    22    32    1
    29    22    53   am
    30    24    25   ar
    31    24    29   ar
    32    24    33    1
    33    25    26   ar
    34    25    37    1
    35    26    27   ar
    36    26    34    1
    37    27    28   ar
    38    27    35    1
    39    28    29   ar
    40    29    42    1
    41    36    37   ar
    42    36    41   ar
    43    36    43    1
    44    37    38   ar
    45    38    39   ar
    46    38    50    1
    47    39    40   ar
    48    39    44    1
    49    40    41   ar
    50    40    45    1
    51    41    51    1
    52    46    47   ar
    53    46    50   ar
    54    46    52    1
    55    47    48   ar
    56    48    49   ar
    57    49    50   ar
    58    53    54    2
    59    53    55    1
    60    55    56    1
    61    55    57    1
    62    55    58    1
    63    58    59    1
    64    58    60    1
