@<TRIPOS>MOLECULE
GHSM.7.pdb
 63 67 0 0 0
SMALL
GASTEIGER

@<TRIPOS>ATOM
      1  C1        -0.9860    1.1680    1.9130 C.ar    1  BEN1       -0.0568
      2  C2         0.1780    1.8800    2.2170 C.ar    1  BEN1       -0.0614
      3  C3         0.1880    3.2740    2.1230 C.ar    1  BEN1       -0.0600
      4  C4        -0.9620    3.9530    1.7140 C.ar    1  BEN1       -0.0400
      5  C5        -2.1350    3.2460    1.4290 C.ar    1  BEN1        0.0398
      6  C6        -2.1470    1.8490    1.5330 C.ar    1  BEN1       -0.0259
      7 H7__       -0.9800    0.0850    1.9750 H       1  BEN1        0.0621
      8 H8__        1.0740    1.3500    2.5260 H       1  BEN1        0.0618
      9 H9__        1.0910    3.8280    2.3640 H       1  BEN1        0.0618
     10 H10_       -0.9370    5.0330    1.6090 H       1  BEN1        0.0636
     11 N11_       -3.3110    3.9390    1.0270 N.am    1  BEN1       -0.2653
     12 C12_       -3.4430    1.0870    1.2320 C.3     1  BEN1       -0.0238
     13 C13_       -3.7100    1.0710   -0.2960 C.3     1  BEN1       -0.0219
     14 C14_       -3.4850    2.4570   -0.9590 C.3     1  BEN1        0.1002
     15 C15_       -4.0040    3.5730   -0.0800 C.2     1  BEN1        0.2404
     16 O16_       -5.0450    4.1220   -0.4030 O.2     1  BEN1       -0.2732
     17 C17_       -3.8360    5.0180    1.8630 C.3     1  BEN1        0.0449
     18 H18_       -4.2700    1.5940    1.7520 H       1  BEN1        0.0314
     19 H19_       -3.4050    0.0550    1.6170 H       1  BEN1        0.0314
     20 H20_       -4.7520    0.7540   -0.4650 H       1  BEN1        0.0291
     21 H21_       -3.0490    0.3360   -0.7840 H       1  BEN1        0.0291
     22 N22_       -4.1540    2.4600   -2.2590 N.am    1  BEN1       -0.3039
     23 H23_       -2.4080    2.6470   -1.1010 H       1  BEN1        0.0595
     24  C1        -7.4860    4.2920    2.8000 C.ar    2  BEN2       -0.0537
     25  C2        -7.3210    3.2640    3.7330 C.ar    2  BEN2       -0.0170
     26  C3        -6.0380    2.9030    4.1540 C.ar    2  BEN2       -0.0537
     27  C4        -4.9190    3.5090    3.5770 C.ar    2  BEN2       -0.0565
     28  C5        -5.0790    4.4640    2.5670 C.ar    2  BEN2       -0.0297
     29  C6        -6.3650    4.8840    2.2120 C.ar    2  BEN2       -0.0565
     30 H30_       -4.0760    5.8990    1.2450 H       1  BEN1        0.0518
     31 H31_       -3.1270    5.3420    2.6400 H       1  BEN1        0.0518
     32 H32_       -5.0720    2.8600   -2.3170 H       1  BEN1        0.1494
     33 H33_       -8.4820    4.6230    2.5240 H       2  BEN2        0.0624
     34 H34_       -5.9090    2.1490    4.9250 H       2  BEN2        0.0624
     35 H35_       -3.9250    3.2270    3.9090 H       2  BEN2        0.0621
     36  C1        -9.4660    3.2460    4.9890 C.ar    3  BEN3       -0.0532
     37  C2        -8.4970    2.5390    4.2690 C.ar    3  BEN3       -0.0026
     38  C3        -8.6310    1.1590    4.0710 C.ar    3  BEN3        0.0787
     39  C4        -9.6860    0.4810    4.6920 C.ar    3  BEN3       -0.0459
     40  C5       -10.6400    1.1810    5.4370 C.ar    3  BEN3       -0.0609
     41  C6       -10.5400    2.5680    5.5710 C.ar    3  BEN3       -0.0611
     42 H42_       -6.5020    5.6670    1.4720 H       2  BEN2        0.0621
     43 H43_       -9.3810    4.3220    5.1040 H       3  BEN3        0.0624
     44 H44_       -9.7720   -0.5970    4.5920 H       3  BEN3        0.0626
     45 H45_      -11.4590    0.6470    5.9100 H       3  BEN3        0.0618
     46  N1        -7.0960    0.8290    2.1330 N.ar    4  TET4       -0.0576
     47  N2        -6.3280   -0.1710    1.6590 N.ar    4  TET4        0.1370
     48  N3        -6.4770   -1.2100    2.4980 N.ar    4  TET4        0.0227
     49  N4        -7.3800   -0.8290    3.5240 N.ar    4  TET4       -0.0564
     50  C1        -7.6660    0.3690    3.2100 C.ar    4  TET4        0.3568
     51 H51_      -11.2930    3.1170    6.1280 H       3  BEN3        0.0618
     52 H52_       -7.2220    1.7510    1.6980 H       4  TET4        0.4932
     53 C53_       -3.5670    1.8740   -3.3240 C.2     1  BEN1        0.2148
     54 O54_       -2.4640    1.3600   -3.2480 O.2     1  BEN1       -0.2758
     55 C55_       -4.3020    1.8540   -4.6400 C.3     1  BEN1        0.0363
     56 C56_       -5.6410    1.0890   -4.4880 C.3     1  BEN1        0.0014
     57 H57_       -3.6760    1.3610   -5.4020 H       1  BEN1        0.0371
     58 H58_       -4.4880    2.8890   -4.9640 H       1  BEN1        0.0371
     59 H59_       -5.4220    0.0810   -4.0960 H       1  BEN1        0.0426
     60 N60_       -6.5310    1.8120   -3.5520 N.3     1  BEN1       -0.3295
     61 H61_       -6.1270    0.9770   -5.4730 H       1  BEN1        0.0426
     62 H62_       -7.3660    1.1870   -3.2600 H       1  BEN1        0.1182
     63 H63_       -6.9120    2.7180   -4.0090 H       1  BEN1        0.1182
@<TRIPOS>BOND
     1     1     2   ar
     2     1     6   ar
     3     1     7    1
     4     2     8    1
     5     2     3   ar
     6     3     4   ar
     7     3     9    1
     8     4     5   ar
     9     4    10    1
    10     5     6   ar
    11     5    11    1
    12     6    12    1
    13    11    15   am
    14    11    17    1
    15    12    13    1
    16    12    18    1
    17    12    19    1
    18    13    14    1
    19    13    20    1
    20    13    21    1
    21    14    15    1
    22    14    22    1
    23    14    23    1
    24    15    16    2
    25    17    30    1
    26    17    31    1
    27    17    28    1
    28    22    32    1
    29    22    53   am
    30    24    25   ar
    31    24    29   ar
    32    24    33    1
    33    25    26   ar
    34    25    37    1
    35    26    27   ar
    36    26    34    1
    37    27    28   ar
    38    27    35    1
    39    28    29   ar
    40    29    42    1
    41    36    37   ar
    42    36    41   ar
    43    36    43    1
    44    37    38   ar
    45    38    39   ar
    46    38    50    1
    47    39    40   ar
    48    39    44    1
    49    40    41   ar
    50    40    45    1
    51    41    51    1
    52    46    47   ar
    53    46    50   ar
    54    46    52    1
    55    47    48   ar
    56    48    49   ar
    57    49    50   ar
    58    53    54    2
    59    53    55    1
    60    55    56    1
    61    55    57    1
    62    55    58    1
    63    56    59    1
    64    56    60    1
    65    56    61    1
    66    60    62    1
    67    60    63    1
