@<TRIPOS>MOLECULE
GHSM.19.pdb
 80 84 0 0 0
SMALL
GASTEIGER

@<TRIPOS>ATOM
      1  C1        -0.9980    1.1590    1.8940 C.ar    1  BEN1       -0.0568
      2  C2         0.1780    1.8590    2.1790 C.ar    1  BEN1       -0.0614
      3  C3         0.2010    3.2530    2.0900 C.ar    1  BEN1       -0.0600
      4  C4        -0.9490    3.9450    1.7000 C.ar    1  BEN1       -0.0400
      5  C5        -2.1310    3.2490    1.4270 C.ar    1  BEN1        0.0398
      6  C6        -2.1600    1.8530    1.5370 C.ar    1  BEN1       -0.0259
      7  H7        -1.0020    0.0760    1.9540 H       1  BEN1        0.0621
      8  H8         1.0750    1.3190    2.4690 H       1  BEN1        0.0618
      9  H9         1.1120    3.7970    2.3200 H       1  BEN1        0.0618
     10  H10       -0.9170    5.0250    1.6020 H       1  BEN1        0.0636
     11 N11_       -3.3010    3.9530    1.0280 N.am    1  BEN1       -0.2653
     12 C12_       -3.4720    1.1060    1.2690 C.3     1  BEN1       -0.0238
     13 C13_       -3.7880    1.0880   -0.2500 C.3     1  BEN1       -0.0219
     14 C14_       -3.5070    2.4490   -0.9400 C.3     1  BEN1        0.1002
     15 C15_       -4.0040    3.5840   -0.0710 C.2     1  BEN1        0.2404
     16 O16_       -5.0390    4.1450   -0.3970 O.2     1  BEN1       -0.2732
     17 C17_       -3.8230    5.0300    1.8690 C.3     1  BEN1        0.0449
     18  H18       -4.2790    1.6250    1.8070 H       1  BEN1        0.0314
     19  H19       -3.4390    0.0750    1.6590 H       1  BEN1        0.0314
     20  H20       -4.8490    0.8230   -0.3890 H       1  BEN1        0.0291
     21  H21       -3.1790    0.3140   -0.7460 H       1  BEN1        0.0291
     22 N22_       -4.1850    2.4620   -2.2330 N.am    1  BEN1       -0.3039
     23  H23       -2.4240    2.6000   -1.0890 H       1  BEN1        0.0595
     24  C1        -7.4780    4.2970    2.7930 C.ar    2  BEN2       -0.0537
     25  C2        -7.3140    3.2650    3.7210 C.ar    2  BEN2       -0.0170
     26  C3        -6.0310    2.9030    4.1410 C.ar    2  BEN2       -0.0537
     27  C4        -4.9130    3.5150    3.5710 C.ar    2  BEN2       -0.0565
     28  C5        -5.0700    4.4780    2.5680 C.ar    2  BEN2       -0.0297
     29  C6        -6.3570    4.9000    2.2140 C.ar    2  BEN2       -0.0565
     30  H30       -4.0590    5.9140    1.2560 H       1  BEN1        0.0518
     31  H31       -3.1120    5.3460    2.6470 H       1  BEN1        0.0518
     32  H32       -5.0720    2.9180   -2.2960 H       1  BEN1        0.1494
     33  H33       -8.4740    4.6250    2.5140 H       2  BEN2        0.0624
     34  H34       -5.9020    2.1430    4.9070 H       2  BEN2        0.0624
     35  H35       -3.9190    3.2330    3.9050 H       2  BEN2        0.0621
     36  C1        -9.4550    3.2440    4.9810 C.ar    3  BEN3       -0.0532
     37  C2        -8.4890    2.5380    4.2580 C.ar    3  BEN3       -0.0026
     38  C3        -8.6250    1.1580    4.0590 C.ar    3  BEN3        0.0787
     39  C4        -9.6820    0.4810    4.6770 C.ar    3  BEN3       -0.0459
     40  C5       -10.6340    1.1800    5.4250 C.ar    3  BEN3       -0.0609
     41  C6       -10.5300    2.5670    5.5630 C.ar    3  BEN3       -0.0611
     42  H42       -6.4930    5.6900    1.4830 H       2  BEN2        0.0621
     43  H43       -9.3680    4.3190    5.0990 H       3  BEN3        0.0624
     44  H44       -9.7710   -0.5970    4.5740 H       3  BEN3        0.0626
     45  H45      -11.4540    0.6470    5.8970 H       3  BEN3        0.0618
     46  N1        -7.0850    0.8210    2.1250 N.ar    4  TET4       -0.0576
     47  N2        -6.3210   -0.1830    1.6540 N.ar    4  TET4        0.1370
     48  N3        -6.4770   -1.2220    2.4930 N.ar    4  TET4        0.0227
     49  N4        -7.3820   -0.8360    3.5150 N.ar    4  TET4       -0.0564
     50  C1        -7.6610    0.3640    3.2000 C.ar    4  TET4        0.3568
     51  H51      -11.2810    3.1150    6.1240 H       3  BEN3        0.0618
     52  H52       -7.2050    1.7440    1.6910 H       4  TET4        0.4932
     53 C53_       -3.6500    1.8140   -3.2860 C.2     1  BEN1        0.2154
     54 O54_       -2.5910    1.2150   -3.1940 O.2     1  BEN1       -0.2757
     55 C55_       -4.3690    1.8310   -4.6120 C.3     1  BEN1        0.0417
     56 C56_       -5.7990    1.2200   -4.5040 C.3     1  BEN1        0.0219
     57  H57       -3.7800    1.2440   -5.3330 H       1  BEN1        0.0376
     58  H58       -4.3920    2.8640   -4.9820 H       1  BEN1        0.0376
     59 C59_       -5.6800   -0.2270   -3.9370 C.3     1  BEN1       -0.0466
     60 N60_       -6.6430    2.0170   -3.5690 N.3     1  BEN1       -0.3081
     61 C61_       -6.4440    1.1520   -5.9180 C.3     1  BEN1       -0.0466
     62  H62       -6.6570   -0.7340   -3.9500 H       1  BEN1        0.0247
     63  C63       -7.0980    3.3780   -3.9530 C.3     1  BEN1        0.0246
     64  H64       -5.3240   -0.2040   -2.8960 H       1  BEN1        0.0247
     65  H65       -4.9760   -0.8290   -4.5320 H       1  BEN1        0.0247
     66  H66       -7.5010    1.4420   -3.2390 H       1  BEN1        0.1225
     67  H67       -6.4200    2.1330   -6.4140 H       1  BEN1        0.0247
     68  H68       -7.4910    0.8210   -5.8400 H       1  BEN1        0.0247
     69  H69       -5.9010    0.4390   -6.5570 H       1  BEN1        0.0247
     70  H70       -7.7680    3.3320   -4.8260 H       1  BEN1        0.0450
     71  H71       -6.2490    4.0310   -4.2010 H       1  BEN1        0.0450
     72  C72       -7.9020    4.0140   -2.7870 C.3     1  BEN1        0.0906
     73  C73       -8.3240    5.4690   -3.1340 C.3     1  BEN1        0.0713
     74  O74       -9.0590    3.1870   -2.5530 O.3     1  BEN1       -0.3883
     75  H75       -7.2670    4.0270   -1.8840 H       1  BEN1        0.0629
     76  H76       -8.9040    5.9040   -2.3030 H       1  BEN1        0.0583
     77  H77       -8.9710    5.4500   -4.0250 H       1  BEN1        0.0583
     78  O78       -7.1860    6.3000   -3.4290 O.3     1  BEN1       -0.3924
     79  H79       -9.5950    3.4850   -1.8250 H       1  BEN1        0.2099
     80  H80       -6.5850    6.3860   -2.6950 H       1  BEN1        0.2095
@<TRIPOS>BOND
     1     1     2   ar
     2     1     6   ar
     3     1     7    1
     4     2     8    1
     5     2     3   ar
     6     3     4   ar
     7     3     9    1
     8     4     5   ar
     9     4    10    1
    10     5     6   ar
    11     5    11    1
    12     6    12    1
    13    11    15   am
    14    11    17    1
    15    12    13    1
    16    12    18    1
    17    12    19    1
    18    13    14    1
    19    13    20    1
    20    13    21    1
    21    14    15    1
    22    14    22    1
    23    14    23    1
    24    15    16    2
    25    17    30    1
    26    17    31    1
    27    17    28    1
    28    22    32    1
    29    22    53   am
    30    24    25   ar
    31    24    29   ar
    32    24    33    1
    33    25    26   ar
    34    25    37    1
    35    26    27   ar
    36    26    34    1
    37    27    28   ar
    38    27    35    1
    39    28    29   ar
    40    29    42    1
    41    36    37   ar
    42    36    41   ar
    43    36    43    1
    44    37    38   ar
    45    38    39   ar
    46    38    50    1
    47    39    40   ar
    48    39    44    1
    49    40    41   ar
    50    40    45    1
    51    41    51    1
    52    46    47   ar
    53    46    50   ar
    54    46    52    1
    55    47    48   ar
    56    48    49   ar
    57    49    50   ar
    58    53    54    2
    59    53    55    1
    60    55    56    1
    61    55    57    1
    62    55    58    1
    63    56    59    1
    64    56    60    1
    65    56    61    1
    66    59    62    1
    67    59    64    1
    68    59    65    1
    69    60    63    1
    70    60    66    1
    71    61    67    1
    72    61    68    1
    73    61    69    1
    74    63    70    1
    75    63    71    1
    76    63    72    1
    77    72    73    1
    78    72    74    1
    79    72    75    1
    80    73    76    1
    81    73    77    1
    82    73    78    1
    83    74    79    1
    84    78    80    1
