@<TRIPOS>MOLECULE
GHSM.14.pdb
 82 87 0 0 0
SMALL
GASTEIGER

@<TRIPOS>ATOM
      1  C1        -0.9420    1.2020    1.8910 C.ar    1  BEN1       -0.0568
      2  C2         0.2210    1.9260    2.1670 C.ar    1  BEN1       -0.0614
      3  C3         0.2170    3.3200    2.0650 C.ar    1  BEN1       -0.0600
      4  C4        -0.9480    3.9860    1.6770 C.ar    1  BEN1       -0.0400
      5  C5        -2.1190    3.2660    1.4180 C.ar    1  BEN1        0.0398
      6  C6        -2.1180    1.8700    1.5320 C.ar    1  BEN1       -0.0259
      7  C1        -9.1220    3.3520   -2.1100 C.ar    5  BEN5       -0.0573
      8  C2        -9.7200    3.9930   -1.0210 C.ar    5  BEN5       -0.0615
      9  C3        -9.1530    5.1570   -0.4980 C.ar    5  BEN5       -0.0617
     10  C4        -7.9730    5.6630   -1.0510 C.ar    5  BEN5       -0.0615
     11 N11_       -3.3080    3.9460    1.0340 N.am    1  BEN1       -0.2653
     12 C12_       -3.4140    1.0950    1.2650 C.3     1  BEN1       -0.0238
     13 C13_       -3.7190    1.0660   -0.2550 C.3     1  BEN1       -0.0219
     14 C14_       -3.5130    2.4460   -0.9370 C.3     1  BEN1        0.1002
     15 C15_       -4.0160    3.5690   -0.0590 C.2     1  BEN1        0.2404
     16 O16_       -5.0620    4.1160   -0.3720 O.2     1  BEN1       -0.2732
     17 C17_       -3.8280    5.0290    1.8680 C.3     1  BEN1        0.0449
     18  C5        -7.3590    5.0020   -2.1190 C.ar    5  BEN5       -0.0573
     19  C6        -7.9440    3.8570   -2.6720 C.ar    5  BEN5       -0.0336
     20  H1        -9.5800    2.4570   -2.5190 H       5  BEN5        0.0621
     21  H2       -10.6280    3.5870   -0.5850 H       5  BEN5        0.0618
     22 N22_       -4.2150    2.4360   -2.2190 N.am    1  BEN1       -0.3039
     23  H3        -9.6270    5.6680    0.3340 H       5  BEN5        0.0618
     24  C1        -7.4790    4.2910    2.7870 C.ar    2  BEN2       -0.0537
     25  C2        -7.3150    3.2650    3.7210 C.ar    2  BEN2       -0.0170
     26  C3        -6.0340    2.9100    4.1510 C.ar    2  BEN2       -0.0537
     27  C4        -4.9140    3.5190    3.5810 C.ar    2  BEN2       -0.0565
     28  C5        -5.0710    4.4760    2.5730 C.ar    2  BEN2       -0.0297
     29  C6        -6.3560    4.8960    2.2160 C.ar    2  BEN2       -0.0565
     30  H4        -7.5340    6.5720   -0.6530 H       5  BEN5        0.0618
     31  H5        -6.4240    5.3870   -2.5130 H       5  BEN5        0.0621
     32  C32       -7.3180    3.1560   -3.8880 C.3     5  BEN5        0.0217
     33  H33       -0.9250    0.1190    1.9580 H       1  BEN1        0.0621
     34  H34        1.1280    1.4060    2.4600 H       1  BEN1        0.0618
     35  H35        1.1190    3.8830    2.2850 H       1  BEN1        0.0618
     36  C1        -9.4660    3.2430    4.9670 C.ar    3  BEN3       -0.0532
     37  C2        -8.4910    2.5370    4.2530 C.ar    3  BEN3       -0.0026
     38  C3        -8.6190    1.1560    4.0600 C.ar    3  BEN3        0.0787
     39  C4        -9.6680    0.4740    4.6870 C.ar    3  BEN3       -0.0459
     40  C5       -10.6250    1.1720    5.4290 C.ar    3  BEN3       -0.0609
     41  C6       -10.5360    2.5610    5.5520 C.ar    3  BEN3       -0.0611
     42  H42       -0.9360    5.0650    1.5670 H       1  BEN1        0.0636
     43  H43       -4.2330    1.5990    1.8000 H       1  BEN1        0.0314
     44  H44       -3.3590    0.0660    1.6570 H       1  BEN1        0.0314
     45  H45       -4.7650    0.7480   -0.3960 H       1  BEN1        0.0291
     46  N1        -7.0860    0.8310    2.1190 N.ar    4  TET4       -0.0576
     47  N2        -6.3130   -0.1660    1.6460 N.ar    4  TET4        0.1370
     48  N3        -6.4550   -1.2040    2.4870 N.ar    4  TET4        0.0227
     49  N4        -7.3590   -0.8260    3.5130 N.ar    4  TET4       -0.0564
     50  C1        -7.6520    0.3700    3.1970 C.ar    4  TET4        0.3568
     51  H51       -3.0710    0.3260   -0.7530 H       1  BEN1        0.0291
     52  H52       -2.4400    2.6360   -1.1080 H       1  BEN1        0.0595
     53 C53_       -3.6660    1.8210   -3.2850 C.2     1  BEN1        0.2154
     54 O54_       -2.5800    1.2680   -3.2220 O.2     1  BEN1       -0.2757
     55 C55_       -4.4200    1.8220   -4.5900 C.3     1  BEN1        0.0417
     56 C56_       -5.8120    1.1430   -4.4320 C.3     1  BEN1        0.0221
     57  H57       -4.0660    5.9080    1.2480 H       1  BEN1        0.0518
     58  H58       -3.1160    5.3510    2.6440 H       1  BEN1        0.0518
     59 C59_       -5.6040   -0.3070   -3.8960 C.3     1  BEN1       -0.0466
     60 N60_       -6.6250    1.9190   -3.4540 N.3     1  BEN1       -0.3066
     61 C61_       -6.5140    1.0600   -5.8180 C.3     1  BEN1       -0.0466
     62  H62       -5.1240    2.8590   -2.2660 H       1  BEN1        0.1494
     63  H63       -8.4750    4.6110    2.4980 H       2  BEN2        0.0624
     64  H64       -5.9070    2.1570    4.9240 H       2  BEN2        0.0624
     65  H65       -3.9200    3.2400    3.9180 H       2  BEN2        0.0621
     66  H66       -6.4900    5.6890    1.4890 H       2  BEN2        0.0621
     67  H67       -6.6220    3.8440   -4.3900 H       5  BEN5        0.0474
     68  H68       -8.1330    2.9310   -4.5940 H       5  BEN5        0.0474
     69  H69       -9.3890    4.3200    5.0730 H       3  BEN3        0.0624
     70  H70       -9.7460   -0.6040    4.5940 H       3  BEN3        0.0626
     71  H71      -11.4390    0.6360    5.9080 H       3  BEN3        0.0618
     72  H72      -11.2940    3.1090    6.1040 H       3  BEN3        0.0618
     73  H73       -7.2180    1.7530    1.6830 H       4  TET4        0.4932
     74  H74       -3.8270    1.2810   -5.3430 H       1  BEN1        0.0376
     75  H75       -4.5160    2.8620   -4.9290 H       1  BEN1        0.0376
     76  H76       -6.5610   -0.8520   -3.8690 H       1  BEN1        0.0247
     77  H77       -5.1940   -0.2900   -2.8750 H       1  BEN1        0.0247
     78  H78       -4.9100   -0.8700   -4.5390 H       1  BEN1        0.0247
     79  H79       -7.3260    1.2750   -2.9380 H       1  BEN1        0.1228
     80  H80       -6.5720    2.0490   -6.2980 H       1  BEN1        0.0247
     81  H81       -7.5350    0.6640   -5.7010 H       1  BEN1        0.0247
     82  H82       -5.9590    0.3920   -6.4950 H       1  BEN1        0.0247
@<TRIPOS>BOND
     1     1     2   ar
     2     1     6   ar
     3     1    33    1
     4     2     3   ar
     5     2    34    1
     6     3     4   ar
     7     3    35    1
     8     4     5   ar
     9     4    42    1
    10     5     6   ar
    11     5    11    1
    12     6    12    1
    13     7     8   ar
    14     7    19   ar
    15     7    20    1
    16     8     9   ar
    17     8    21    1
    18     9    10   ar
    19     9    23    1
    20    10    18   ar
    21    10    30    1
    22    11    15   am
    23    11    17    1
    24    12    13    1
    25    12    43    1
    26    12    44    1
    27    13    14    1
    28    13    45    1
    29    13    51    1
    30    14    15    1
    31    14    22    1
    32    14    52    1
    33    15    16    2
    34    17    28    1
    35    17    57    1
    36    17    58    1
    37    18    19   ar
    38    18    31    1
    39    19    32    1
    40    22    53   am
    41    22    62    1
    42    24    25   ar
    43    24    29   ar
    44    24    63    1
    45    25    26   ar
    46    25    37    1
    47    26    27   ar
    48    26    64    1
    49    27    28   ar
    50    27    65    1
    51    28    29   ar
    52    29    66    1
    53    32    60    1
    54    32    67    1
    55    32    68    1
    56    36    37   ar
    57    36    41   ar
    58    36    69    1
    59    37    38   ar
    60    38    39   ar
    61    38    50    1
    62    39    40   ar
    63    39    70    1
    64    40    41   ar
    65    40    71    1
    66    41    72    1
    67    46    47   ar
    68    46    50   ar
    69    46    73    1
    70    47    48   ar
    71    48    49   ar
    72    49    50   ar
    73    53    54    2
    74    53    55    1
    75    55    56    1
    76    55    74    1
    77    55    75    1
    78    56    59    1
    79    56    60    1
    80    56    61    1
    81    59    76    1
    82    59    77    1
    83    59    78    1
    84    60    79    1
    85    61    80    1
    86    61    81    1
    87    61    82    1
