@<TRIPOS>MOLECULE
GHSM.16.pdb
 76 80 0 0 0
SMALL
GASTEIGER

@<TRIPOS>ATOM
      1  C1        -0.9870    1.1690    1.8930 C.ar    1  BEN1       -0.0568
      2  C2         0.1860    1.8750    2.1770 C.ar    1  BEN1       -0.0614
      3  C3         0.2020    3.2690    2.0850 C.ar    1  BEN1       -0.0600
      4  C4        -0.9510    3.9550    1.6940 C.ar    1  BEN1       -0.0400
      5  C5        -2.1300    3.2530    1.4240 C.ar    1  BEN1        0.0398
      6  C6        -2.1520    1.8570    1.5350 C.ar    1  BEN1       -0.0259
      7  H7        -0.9860    0.0860    1.9550 H       1  BEN1        0.0621
      8  H8         1.0840    1.3400    2.4680 H       1  BEN1        0.0618
      9  H9         1.1110    3.8180    2.3140 H       1  BEN1        0.0618
     10  H10       -0.9230    5.0350    1.5930 H       1  BEN1        0.0636
     11 N11_       -3.3050    3.9510    1.0270 N.am    1  BEN1       -0.2653
     12 C12_       -3.4610    1.1030    1.2670 C.3     1  BEN1       -0.0238
     13 C13_       -3.7750    1.0830   -0.2520 C.3     1  BEN1       -0.0219
     14 C14_       -3.5070    2.4480   -0.9410 C.3     1  BEN1        0.1002
     15 C15_       -4.0100    3.5780   -0.0700 C.2     1  BEN1        0.2404
     16 O16_       -5.0500    4.1300   -0.3920 O.2     1  BEN1       -0.2732
     17 C17_       -3.8260    5.0290    1.8670 C.3     1  BEN1        0.0449
     18  H18       -4.2700    1.6190    1.8050 H       1  BEN1        0.0314
     19  H19       -3.4230    0.0730    1.6570 H       1  BEN1        0.0314
     20  H20       -4.8330    0.8090   -0.3920 H       1  BEN1        0.0291
     21  H21       -3.1580    0.3150   -0.7470 H       1  BEN1        0.0291
     22 N22_       -4.1800    2.4540   -2.2380 N.am    1  BEN1       -0.3039
     23  H23       -2.4250    2.6080   -1.0870 H       1  BEN1        0.0595
     24  C1        -7.4780    4.2990    2.7980 C.ar    2  BEN2       -0.0537
     25  C2        -7.3140    3.2660    3.7260 C.ar    2  BEN2       -0.0170
     26  C3        -6.0310    2.9050    4.1460 C.ar    2  BEN2       -0.0537
     27  C4        -4.9130    3.5170    3.5750 C.ar    2  BEN2       -0.0565
     28  C5        -5.0710    4.4780    2.5700 C.ar    2  BEN2       -0.0297
     29  C6        -6.3580    4.9000    2.2170 C.ar    2  BEN2       -0.0565
     30  H30       -4.0640    5.9120    1.2520 H       1  BEN1        0.0518
     31  H31       -3.1140    5.3480    2.6440 H       1  BEN1        0.0518
     32  H32       -5.0700    2.9030   -2.3080 H       1  BEN1        0.1494
     33  H33       -8.4750    4.6290    2.5220 H       2  BEN2        0.0624
     34  H34       -5.9020    2.1460    4.9110 H       2  BEN2        0.0624
     35  H35       -3.9190    3.2360    3.9090 H       2  BEN2        0.0621
     36  C1        -9.4580    3.2430    4.9810 C.ar    3  BEN3       -0.0532
     37  C2        -8.4900    2.5380    4.2580 C.ar    3  BEN3       -0.0026
     38  C3        -8.6260    1.1580    4.0560 C.ar    3  BEN3        0.0787
     39  C4        -9.6870    0.4810    4.6670 C.ar    3  BEN3       -0.0459
     40  C5       -10.6410    1.1790    5.4120 C.ar    3  BEN3       -0.0609
     41  C6       -10.5360    2.5650    5.5550 C.ar    3  BEN3       -0.0611
     42  H42       -6.4950    5.6900    1.4850 H       2  BEN2        0.0621
     43  H43       -9.3700    4.3180    5.1030 H       3  BEN3        0.0624
     44  H44       -9.7770   -0.5960    4.5610 H       3  BEN3        0.0626
     45  H45      -11.4650    0.6460    5.8780 H       3  BEN3        0.0618
     46  N1        -7.0780    0.8250    2.1280 N.ar    4  TET4       -0.0576
     47  N2        -6.3130   -0.1790    1.6570 N.ar    4  TET4        0.1370
     48  N3        -6.4740   -1.2190    2.4930 N.ar    4  TET4        0.0227
     49  N4        -7.3820   -0.8350    3.5130 N.ar    4  TET4       -0.0564
     50  C1        -7.6590    0.3660    3.1990 C.ar    4  TET4        0.3568
     51  H51      -11.2890    3.1140    6.1140 H       3  BEN3        0.0618
     52  H52       -7.1950    1.7490    1.6960 H       4  TET4        0.4932
     53 C53_       -3.6280    1.8120   -3.2860 C.2     1  BEN1        0.2154
     54 O54_       -2.5630    1.2260   -3.1830 O.2     1  BEN1       -0.2757
     55 C55_       -4.3300    1.8130   -4.6210 C.3     1  BEN1        0.0417
     56 C56_       -5.7530    1.1830   -4.5330 C.3     1  BEN1        0.0218
     57  H57       -3.7230    1.2320   -5.3330 H       1  BEN1        0.0376
     58  H58       -4.3600    2.8450   -4.9950 H       1  BEN1        0.0376
     59 C59_       -5.6180   -0.2620   -3.9620 C.3     1  BEN1       -0.0466
     60 N60_       -6.6320    1.9640   -3.6160 N.3     1  BEN1       -0.3084
     61 C61_       -6.3720    1.1000   -5.9580 C.3     1  BEN1       -0.0466
     62  H62       -6.5840   -0.7880   -3.9930 H       1  BEN1        0.0247
     63  C63       -7.1020    3.3150   -4.0200 C.3     1  BEN1        0.0196
     64  H64       -5.2830   -0.2300   -2.9140 H       1  BEN1        0.0247
     65  H65       -4.8910   -0.8520   -4.5420 H       1  BEN1        0.0247
     66  H66       -7.4810    1.3650   -3.3060 H       1  BEN1        0.1225
     67  H67       -6.3600    2.0810   -6.4550 H       1  BEN1        0.0247
     68  H68       -7.4130    0.7470   -5.9000 H       1  BEN1        0.0247
     69  H69       -5.8040    0.3980   -6.5880 H       1  BEN1        0.0247
     70  H70       -7.7790    3.2520   -4.8880 H       1  BEN1        0.0447
     71  H71       -6.2620    3.9720   -4.2860 H       1  BEN1        0.0447
     72  C72       -7.8930    3.9960   -2.8710 C.3     1  BEN1        0.0567
     73  O73       -8.3860    5.2860   -3.2770 O.3     1  BEN1       -0.3938
     74  H74       -7.2670    4.0890   -1.9680 H       1  BEN1        0.0570
     75  H75       -8.7710    3.3820   -2.6140 H       1  BEN1        0.0570
     76  H76       -7.6920    5.9030   -3.4860 H       1  BEN1        0.2095
@<TRIPOS>BOND
     1     1     2   ar
     2     1     6   ar
     3     1     7    1
     4     2     8    1
     5     2     3   ar
     6     3     4   ar
     7     3     9    1
     8     4     5   ar
     9     4    10    1
    10     5     6   ar
    11     5    11    1
    12     6    12    1
    13    11    15   am
    14    11    17    1
    15    12    13    1
    16    12    18    1
    17    12    19    1
    18    13    14    1
    19    13    20    1
    20    13    21    1
    21    14    15    1
    22    14    22    1
    23    14    23    1
    24    15    16    2
    25    17    30    1
    26    17    31    1
    27    17    28    1
    28    22    32    1
    29    22    53   am
    30    24    25   ar
    31    24    29   ar
    32    24    33    1
    33    25    26   ar
    34    25    37    1
    35    26    27   ar
    36    26    34    1
    37    27    28   ar
    38    27    35    1
    39    28    29   ar
    40    29    42    1
    41    36    37   ar
    42    36    41   ar
    43    36    43    1
    44    37    38   ar
    45    38    39   ar
    46    38    50    1
    47    39    40   ar
    48    39    44    1
    49    40    41   ar
    50    40    45    1
    51    41    51    1
    52    46    47   ar
    53    46    50   ar
    54    46    52    1
    55    47    48   ar
    56    48    49   ar
    57    49    50   ar
    58    53    54    2
    59    53    55    1
    60    55    56    1
    61    55    57    1
    62    55    58    1
    63    56    59    1
    64    56    60    1
    65    56    61    1
    66    59    62    1
    67    59    64    1
    68    59    65    1
    69    60    63    1
    70    60    66    1
    71    61    67    1
    72    61    68    1
    73    61    69    1
    74    63    70    1
    75    63    71    1
    76    63    72    1
    77    72    73    1
    78    72    74    1
    79    72    75    1
    80    73    76    1
