@<TRIPOS>MOLECULE
GHSM.6.pdb
 73 78 0 0 0
SMALL
GASTEIGER

@<TRIPOS>ATOM
      1  C1        -0.9890    1.1480    1.9000 C.ar    1  BEN1       -0.0568
      2  C2         0.1760    1.8550    2.2120 C.ar    1  BEN1       -0.0614
      3  C3         0.1910    3.2490    2.1280 C.ar    1  BEN1       -0.0600
      4  C4        -0.9580    3.9350    1.7220 C.ar    1  BEN1       -0.0400
      5  C5        -2.1320    3.2320    1.4320 C.ar    1  BEN1        0.0398
      6  C6        -2.1490    1.8340    1.5230 C.ar    1  BEN1       -0.0259
      7 H7__       -0.9850    0.0640    1.9540 H       1  BEN1        0.0621
      8 H8__        1.0700    1.3210    2.5200 H       1  BEN1        0.0618
      9 H9__        1.0940    3.7990    2.3730 H       1  BEN1        0.0618
     10 H10_       -0.9300    5.0150    1.6250 H       1  BEN1        0.0636
     11 N11_       -3.3050    3.9320    1.0350 N.am    1  BEN1       -0.2653
     12 C12_       -3.4450    1.0740    1.2130 C.3     1  BEN1       -0.0238
     13 C13_       -3.7210    1.0700   -0.3150 C.3     1  BEN1       -0.0219
     14 C14_       -3.4900    2.4620   -0.9600 C.3     1  BEN1        0.1002
     15 C15_       -4.0060    3.5660   -0.0650 C.2     1  BEN1        0.2404
     16 O16_       -5.0560    4.1060   -0.3750 O.2     1  BEN1       -0.2732
     17 C17_       -3.8270    5.0150    1.8680 C.3     1  BEN1        0.0449
     18 H18_       -4.2690    1.5760    1.7420 H       1  BEN1        0.0314
     19 H19_       -3.4070    0.0380    1.5880 H       1  BEN1        0.0314
     20 H20_       -4.7650    0.7630   -0.4850 H       1  BEN1        0.0291
     21 H21_       -3.0650    0.3380   -0.8140 H       1  BEN1        0.0291
     22 N22_       -4.1450    2.5350   -2.2630 N.am    1  BEN1       -0.3027
     23 H23_       -2.4100    2.6480   -1.0890 H       1  BEN1        0.0595
     24  C1        -7.4800    4.2870    2.7850 C.ar    2  BEN2       -0.0537
     25  C2        -7.3200    3.2630    3.7230 C.ar    2  BEN2       -0.0170
     26  C3        -6.0400    2.9030    4.1520 C.ar    2  BEN2       -0.0537
     27  C4        -4.9180    3.5040    3.5780 C.ar    2  BEN2       -0.0565
     28  C5        -5.0720    4.4610    2.5690 C.ar    2  BEN2       -0.0297
     29  C6        -6.3560    4.8810    2.2050 C.ar    2  BEN2       -0.0565
     30 H30_       -4.0630    5.8940    1.2480 H       1  BEN1        0.0518
     31 H31_       -3.1190    5.3370    2.6460 H       1  BEN1        0.0518
     32 H32_       -5.0270    3.0130   -2.3090 H       1  BEN1        0.1495
     33 H33_       -8.4750    4.6140    2.5000 H       2  BEN2        0.0624
     34 H34_       -5.9150    2.1520    4.9270 H       2  BEN2        0.0624
     35 H35_       -3.9250    3.2200    3.9120 H       2  BEN2        0.0621
     36  C1        -9.4710    3.2550    4.9680 C.ar    3  BEN3       -0.0532
     37  C2        -8.5000    2.5420    4.2580 C.ar    3  BEN3       -0.0026
     38  C3        -8.6350    1.1610    4.0690 C.ar    3  BEN3        0.0787
     39  C4        -9.6950    0.4890    4.6870 C.ar    3  BEN3       -0.0459
     40  C5       -10.6520    1.1950    5.4210 C.ar    3  BEN3       -0.0609
     41  C6       -10.5510    2.5830    5.5470 C.ar    3  BEN3       -0.0611
     42 H42_       -6.4890    5.6650    1.4660 H       2  BEN2        0.0621
     43 H43_       -9.3840    4.3320    5.0770 H       3  BEN3        0.0624
     44 H44_       -9.7830   -0.5890    4.5940 H       3  BEN3        0.0626
     45 H45_      -11.4760    0.6660    5.8920 H       3  BEN3        0.0618
     46  N1        -7.0880    0.8150    2.1430 N.ar    4  TET4       -0.0576
     47  N2        -6.3180   -0.1900    1.6810 N.ar    4  TET4        0.1370
     48  N3        -6.4740   -1.2230    2.5270 N.ar    4  TET4        0.0227
     49  N4        -7.3840   -0.8330    3.5440 N.ar    4  TET4       -0.0564
     50  C1        -7.6660    0.3630    3.2190 C.ar    4  TET4        0.3568
     51 H51_      -11.3070    3.1380    6.0950 H       3  BEN3        0.0618
     52 H52_       -7.2090    1.7340    1.7020 H       4  TET4        0.4932
     53 C53_       -3.5460    2.0090   -3.3530 C.2     1  BEN1        0.2308
     54 O54_       -2.5020    1.3840   -3.2730 O.2     1  BEN1       -0.2741
     55 C55_       -4.1700    2.2220   -4.7160 C.3     1  BEN1        0.0863
     56 H56_       -5.2680    2.1970   -4.6200 H       1  BEN1        0.0557
     57 H57_       -4.1310    0.2120   -5.3730 H       1  BEN1        0.1189
     58 N58_       -3.7620    1.1800   -5.6860 N.3     1  BEN1       -0.3197
     59 H59_       -2.6830    1.1350   -5.7510 H       1  BEN1        0.1189
     60 H60_       -6.7680    6.7140   -3.3830 H       5  BEN5        0.0618
     61 H61_       -5.1960    7.3400   -1.5650 H       5  BEN5        0.0618
     62 H62_       -2.9330    6.3210   -1.4780 H       5  BEN5        0.0618
     63 H63_       -2.2510    4.6700   -3.1880 H       5  BEN5        0.0620
     64 H64_       -6.1080    5.0270   -5.0700 H       5  BEN5        0.0620
     65 H65_       -2.6630    3.6440   -5.4030 H       5  BEN5        0.0333
     66 H66_       -4.2350    3.8090   -6.2130 H       5  BEN5        0.0333
     67  C1        -5.7850    6.2550   -3.3330 C.ar    5  BEN5       -0.0615
     68  C2        -4.8980    6.6150   -2.3160 C.ar    5  BEN5       -0.0617
     69  C3        -3.6260    6.0400   -2.2660 C.ar    5  BEN5       -0.0615
     70  C4        -3.2470    5.1000   -3.2290 C.ar    5  BEN5       -0.0585
     71  C5        -4.1450    4.7070   -4.2280 C.ar    5  BEN5       -0.0454
     72  C6        -5.4100    5.3030   -4.2860 C.ar    5  BEN5       -0.0585
     73 C77_       -3.7520    3.6210   -5.2410 C.3     5  BEN5       -0.0039
@<TRIPOS>BOND
     1     1     2   ar
     2     1     6   ar
     3     1     7    1
     4     2     8    1
     5     2     3   ar
     6     3     4   ar
     7     3     9    1
     8     4     5   ar
     9     4    10    1
    10     5     6   ar
    11     5    11    1
    12     6    12    1
    13    11    15   am
    14    11    17    1
    15    12    13    1
    16    12    18    1
    17    12    19    1
    18    13    14    1
    19    13    20    1
    20    13    21    1
    21    14    15    1
    22    14    22    1
    23    14    23    1
    24    15    16    2
    25    17    30    1
    26    17    31    1
    27    17    28    1
    28    22    32    1
    29    22    53   am
    30    24    25   ar
    31    24    29   ar
    32    24    33    1
    33    25    26   ar
    34    25    37    1
    35    26    27   ar
    36    26    34    1
    37    27    28   ar
    38    27    35    1
    39    28    29   ar
    40    29    42    1
    41    36    37   ar
    42    36    41   ar
    43    36    43    1
    44    37    38   ar
    45    38    39   ar
    46    38    50    1
    47    39    40   ar
    48    39    44    1
    49    40    41   ar
    50    40    45    1
    51    41    51    1
    52    46    47   ar
    53    46    50   ar
    54    46    52    1
    55    47    48   ar
    56    48    49   ar
    57    49    50   ar
    58    53    54    2
    59    53    55    1
    60    55    56    1
    61    55    73    1
    62    55    58    1
    63    57    58    1
    64    58    59    1
    65    60    67    1
    66    61    68    1
    67    62    69    1
    68    63    70    1
    69    64    72    1
    70    65    73    1
    71    66    73    1
    72    67    68   ar
    73    67    72   ar
    74    68    69   ar
    75    69    70   ar
    76    70    71   ar
    77    71    72   ar
    78    71    73    1
