@<TRIPOS>MOLECULE
GHSM.22.pdb
 85 89 0 0 0
SMALL
GASTEIGER

@<TRIPOS>ATOM
      1  C1        -0.9690    1.1760    1.9210 C.ar    1  BEN1       -0.0568
      2  C2         0.2020    1.8890    2.1930 C.ar    1  BEN1       -0.0614
      3  C3         0.2140    3.2820    2.0790 C.ar    1  BEN1       -0.0600
      4  C4        -0.9440    3.9580    1.6840 C.ar    1  BEN1       -0.0400
      5  C5        -2.1230    3.2500    1.4340 C.ar    1  BEN1        0.0398
      6  C6        -2.1370    1.8550    1.5560 C.ar    1  BEN1       -0.0259
      7  H7        -0.9640    0.0930    1.9960 H       1  BEN1        0.0621
      8  H8         1.1030    1.3610    2.4910 H       1  BEN1        0.0618
      9  H9         1.1220    3.8370    2.2950 H       1  BEN1        0.0618
     10  H10       -0.9190    5.0360    1.5650 H       1  BEN1        0.0636
     11 N11_       -3.3060    3.9410    1.0500 N.am    1  BEN1       -0.2653
     12 C12_       -3.4420    1.0960    1.2940 C.3     1  BEN1       -0.0238
     13 C13_       -3.7440    1.0620   -0.2260 C.3     1  BEN1       -0.0219
     14 C14_       -3.5460    2.4370   -0.9220 C.3     1  BEN1        0.1002
     15 C15_       -4.0290    3.5700   -0.0380 C.2     1  BEN1        0.2404
     16 O16_       -5.0680    4.1450   -0.3140 O.2     1  BEN1       -0.2732
     17 C17_       -3.8100    5.0340    1.8810 C.3     1  BEN1        0.0449
     18  H18       -4.2550    1.6130    1.8250 H       1  BEN1        0.0314
     19  H19       -3.3990    0.0700    1.6930 H       1  BEN1        0.0314
     20  H20       -4.7880    0.7390   -0.3690 H       1  BEN1        0.0291
     21  H21       -3.0910    0.3170   -0.7120 H       1  BEN1        0.0291
     22 N22_       -4.1990    2.3570   -2.2330 N.am    1  BEN1       -0.3039
     23  H23       -2.4700    2.6320   -1.0700 H       1  BEN1        0.0595
     24  C1        -7.4650    4.3030    2.7820 C.ar    2  BEN2       -0.0537
     25  C2        -7.3090    3.2710    3.7120 C.ar    2  BEN2       -0.0170
     26  C3        -6.0310    2.9190    4.1540 C.ar    2  BEN2       -0.0537
     27  C4        -4.9060    3.5320    3.5960 C.ar    2  BEN2       -0.0565
     28  C5        -5.0560    4.4890    2.5870 C.ar    2  BEN2       -0.0297
     29  C6        -6.3380    4.9140    2.2230 C.ar    2  BEN2       -0.0565
     30  H30       -4.0390    5.9160    1.2610 H       1  BEN1        0.0518
     31  H31       -3.0930    5.3490    2.6550 H       1  BEN1        0.0518
     32  H32       -5.1180    2.7500   -2.3440 H       1  BEN1        0.1494
     33  H33       -8.4580    4.6250    2.4860 H       2  BEN2        0.0624
     34  H34       -5.9100    2.1650    4.9260 H       2  BEN2        0.0624
     35  H35       -3.9150    3.2550    3.9430 H       2  BEN2        0.0621
     36  C1        -9.4740    3.2460    4.9260 C.ar    3  BEN3       -0.0532
     37  C2        -8.4910    2.5400    4.2260 C.ar    3  BEN3       -0.0026
     38  C3        -8.6200    1.1590    4.0270 C.ar    3  BEN3        0.0787
     39  C4        -9.6910    0.4830    4.6210 C.ar    3  BEN3       -0.0459
     40  C5       -10.6620    1.1830    5.3430 C.ar    3  BEN3       -0.0609
     41  C6       -10.5630    2.5690    5.4810 C.ar    3  BEN3       -0.0611
     42  H42       -6.4680    5.7110    1.4980 H       2  BEN2        0.0621
     43  H43       -9.3900    4.3220    5.0450 H       3  BEN3        0.0624
     44  H44       -9.7760   -0.5950    4.5190 H       3  BEN3        0.0626
     45  H45      -11.4940    0.6490    5.7940 H       3  BEN3        0.0618
     46  N1        -7.0330    0.8150    2.1330 N.ar    4  TET4       -0.0576
     47  N2        -6.2600   -0.1930    1.6830 N.ar    4  TET4        0.1370
     48  N3        -6.4370   -1.2280    2.5220 N.ar    4  TET4        0.0227
     49  N4        -7.3650   -0.8360    3.5220 N.ar    4  TET4       -0.0564
     50  C1        -7.6350    0.3620    3.1950 C.ar    4  TET4        0.3568
     51  H51      -11.3290    3.1190    6.0200 H       3  BEN3        0.0618
     52  H52       -7.1400    1.7370    1.6920 H       4  TET4        0.4932
     53 C53_       -3.5680    1.7210   -3.2460 C.2     1  BEN1        0.2154
     54 O54_       -2.4660    1.2250   -3.0810 O.2     1  BEN1       -0.2757
     55 C55_       -4.1870    1.5950   -4.6180 C.3     1  BEN1        0.0417
     56 C56_       -5.5580    0.8500   -4.6090 C.3     1  BEN1        0.0219
     57  H57       -3.4890    1.0410   -5.2650 H       1  BEN1        0.0376
     58  H58       -4.2690    2.6050   -5.0380 H       1  BEN1        0.0376
     59 C59_       -5.3410   -0.5570   -3.9750 C.3     1  BEN1       -0.0466
     60 N60_       -6.5730    1.5760   -3.8040 N.3     1  BEN1       -0.3082
     61 C61_       -6.0720    0.6740   -6.0670 C.3     1  BEN1       -0.0466
     62  H62       -6.2570   -1.1650   -4.0420 H       1  BEN1        0.0247
     63  C63       -7.1360    2.8620   -4.2850 C.3     1  BEN1        0.0227
     64  H64       -5.0750   -0.4590   -2.9110 H       1  BEN1        0.0247
     65  H65       -4.5340   -1.1030   -4.4870 H       1  BEN1        0.0247
     66  H66       -7.3740    0.9160   -3.4900 H       1  BEN1        0.1225
     67  H67       -6.1440    1.6450   -6.5790 H       1  BEN1        0.0247
     68  H68       -7.0690    0.2070   -6.0620 H       1  BEN1        0.0247
     69  H69       -5.3900    0.0320   -6.6450 H       1  BEN1        0.0247
     70  H70       -7.9120    2.6710   -5.0440 H       1  BEN1        0.0449
     71  H71       -6.3580    3.4880   -4.7360 H       1  BEN1        0.0449
     72  C72       -7.7290    3.6230   -3.0720 C.3     1  BEN1        0.0700
     73  C73       -8.2470    5.0650   -3.3790 C.3     1  BEN1       -0.0194
     74  O74       -6.6610    3.6520   -2.1150 O.3     1  BEN1       -0.3903
     75  H75       -8.5590    3.0180   -2.6660 H       1  BEN1        0.0608
     76  H76       -8.7310    5.4230   -2.4520 H       1  BEN1        0.0321
     77  C77       -9.3210    5.0800   -4.5010 C.3     1  BEN1       -0.0603
     78  C78       -7.1070    6.0710   -3.7080 C.3     1  BEN1       -0.0603
     79  H79       -6.8700    4.0720   -1.2830 H       1  BEN1        0.2098
     80  H80      -10.1130    4.3450   -4.2880 H       1  BEN1        0.0233
     81  H81       -8.8740    4.8460   -5.4790 H       1  BEN1        0.0233
     82  H82       -9.7840    6.0770   -4.5710 H       1  BEN1        0.0233
     83  H83       -7.5180    7.0900   -3.7840 H       1  BEN1        0.0233
     84  H84       -6.6210    5.8330   -4.6650 H       1  BEN1        0.0233
     85  H85       -6.3420    6.0700   -2.9170 H       1  BEN1        0.0233
@<TRIPOS>BOND
     1     1     2   ar
     2     1     6   ar
     3     1     7    1
     4     2     8    1
     5     2     3   ar
     6     3     4   ar
     7     3     9    1
     8     4     5   ar
     9     4    10    1
    10     5     6   ar
    11     5    11    1
    12     6    12    1
    13    11    15   am
    14    11    17    1
    15    12    13    1
    16    12    18    1
    17    12    19    1
    18    13    14    1
    19    13    20    1
    20    13    21    1
    21    14    15    1
    22    14    22    1
    23    14    23    1
    24    15    16    2
    25    17    30    1
    26    17    31    1
    27    17    28    1
    28    22    32    1
    29    22    53   am
    30    24    25   ar
    31    24    29   ar
    32    24    33    1
    33    25    26   ar
    34    25    37    1
    35    26    27   ar
    36    26    34    1
    37    27    28   ar
    38    27    35    1
    39    28    29   ar
    40    29    42    1
    41    36    37   ar
    42    36    41   ar
    43    36    43    1
    44    37    38   ar
    45    38    39   ar
    46    38    50    1
    47    39    40   ar
    48    39    44    1
    49    40    41   ar
    50    40    45    1
    51    41    51    1
    52    46    47   ar
    53    46    50   ar
    54    46    52    1
    55    47    48   ar
    56    48    49   ar
    57    49    50   ar
    58    53    54    2
    59    53    55    1
    60    55    56    1
    61    55    57    1
    62    55    58    1
    63    56    59    1
    64    56    60    1
    65    56    61    1
    66    59    62    1
    67    59    64    1
    68    59    65    1
    69    60    63    1
    70    60    66    1
    71    61    67    1
    72    61    68    1
    73    61    69    1
    74    63    70    1
    75    63    71    1
    76    63    72    1
    77    72    73    1
    78    72    74    1
    79    72    75    1
    80    73    76    1
    81    73    77    1
    82    73    78    1
    83    74    79    1
    84    77    80    1
    85    77    81    1
    86    77    82    1
    87    78    83    1
    88    78    84    1
    89    78    85    1
