@<TRIPOS>MOLECULE
GHSM.11.pdb
 69 73 0 0 0
SMALL
GASTEIGER

@<TRIPOS>ATOM
      1  C1        -0.9210    1.2110    1.8750 C.ar    1  BEN1       -0.0568
      2  C2         0.2300    1.9450    2.1720 C.ar    1  BEN1       -0.0614
      3  C3         0.2130    3.3390    2.0820 C.ar    1  BEN1       -0.0600
      4  C4        -0.9540    3.9970    1.6840 C.ar    1  BEN1       -0.0400
      5  C5        -2.1150    3.2670    1.4070 C.ar    1  BEN1        0.0398
      6  C6        -2.0990    1.8700    1.5050 C.ar    1  BEN1       -0.0259
      7 H7__       -0.8930    0.1280    1.9330 H       1  BEN1        0.0621
      8 H8__        1.1390    1.4320    2.4730 H       1  BEN1        0.0618
      9 H9__        1.1060    3.9100    2.3170 H       1  BEN1        0.0618
     10 H10_       -0.9510    5.0770    1.5830 H       1  BEN1        0.0636
     11 N11_       -3.3090    3.9390    1.0190 N.am    1  BEN1       -0.2653
     12 C12_       -3.3800    1.0820    1.2080 C.3     1  BEN1       -0.0238
     13 C13_       -3.6540    1.0690   -0.3190 C.3     1  BEN1       -0.0219
     14 C14_       -3.4670    2.4650   -0.9720 C.3     1  BEN1        0.1002
     15 C15_       -4.0070    3.5620   -0.0810 C.2     1  BEN1        0.2404
     16 O16_       -5.0650    4.0860   -0.3890 O.2     1  BEN1       -0.2732
     17 C17_       -3.8410    5.0110    1.8600 C.3     1  BEN1        0.0449
     18 H18_       -4.2150    1.5680    1.7360 H       1  BEN1        0.0314
     19 H19_       -3.3180    0.0490    1.5860 H       1  BEN1        0.0314
     20 H20_       -4.6880    0.7250   -0.4840 H       1  BEN1        0.0291
     21 H21_       -2.9760    0.3560   -0.8180 H       1  BEN1        0.0291
     22 N22_       -4.1450    2.4570   -2.2670 N.am    1  BEN1       -0.3039
     23 H23_       -2.3960    2.6840   -1.1130 H       1  BEN1        0.0595
     24  C1        -7.4910    4.2890    2.8040 C.ar    2  BEN2       -0.0537
     25  C2        -7.3250    3.2610    3.7370 C.ar    2  BEN2       -0.0170
     26  C3        -6.0410    2.8960    4.1520 C.ar    2  BEN2       -0.0537
     27  C4        -4.9230    3.4950    3.5670 C.ar    2  BEN2       -0.0565
     28  C5        -5.0840    4.4540    2.5620 C.ar    2  BEN2       -0.0297
     29  C6        -6.3710    4.8780    2.2110 C.ar    2  BEN2       -0.0565
     30 H30_       -4.0820    5.8920    1.2450 H       1  BEN1        0.0518
     31 H31_       -3.1350    5.3340    2.6410 H       1  BEN1        0.0518
     32 H32_       -5.0960    2.7680   -2.2990 H       1  BEN1        0.1494
     33 H33_       -8.4870    4.6230    2.5330 H       2  BEN2        0.0624
     34 H34_       -5.9120    2.1420    4.9230 H       2  BEN2        0.0624
     35 H35_       -3.9280    3.2060    3.8920 H       2  BEN2        0.0621
     36  C1        -9.4620    3.2490    5.0050 C.ar    3  BEN3       -0.0532
     37  C2        -8.5000    2.5410    4.2790 C.ar    3  BEN3       -0.0026
     38  C3        -8.6380    1.1610    4.0800 C.ar    3  BEN3        0.0787
     39  C4        -9.6950    0.4860    4.7020 C.ar    3  BEN3       -0.0459
     40  C5       -10.6430    1.1870    5.4520 C.ar    3  BEN3       -0.0609
     41  C6       -10.5370    2.5740    5.5900 C.ar    3  BEN3       -0.0611
     42 H42_       -6.5080    5.6600    1.4710 H       2  BEN2        0.0621
     43 H43_       -9.3730    4.3250    5.1220 H       3  BEN3        0.0624
     44 H44_       -9.7860   -0.5910    4.5990 H       3  BEN3        0.0626
     45 H45_      -11.4620    0.6560    5.9270 H       3  BEN3        0.0618
     46  N1        -7.1020    0.8290    2.1420 N.ar    4  TET4       -0.0576
     47  N2        -6.3340   -0.1730    1.6690 N.ar    4  TET4        0.1370
     48  N3        -6.4890   -1.2120    2.5060 N.ar    4  TET4        0.0227
     49  N4        -7.3930   -0.8300    3.5300 N.ar    4  TET4       -0.0564
     50  C1        -7.6750    0.3690    3.2170 C.ar    4  TET4        0.3568
     51 H51_      -11.2850    3.1240    6.1520 H       3  BEN3        0.0618
     52 H52_       -7.2240    1.7520    1.7080 H       4  TET4        0.4932
     53 C53_       -3.5150    1.9750   -3.3580 C.2     1  BEN1        0.2153
     54 O54_       -2.3630    1.5760   -3.3130 O.2     1  BEN1       -0.2757
     55 C55_       -4.2590    1.9140   -4.6680 C.3     1  BEN1        0.0415
     56 C56_       -5.3700    0.8250   -4.6220 C.3     1  BEN1        0.0191
     57 H57_       -3.5460    1.6920   -5.4770 H       1  BEN1        0.0376
     58 H58_       -4.6990    2.9020   -4.8690 H       1  BEN1        0.0376
     59 C59_       -4.7370   -0.5520   -4.2670 C.3     1  BEN1       -0.0468
     60 N60_       -6.3520    1.1930   -3.5760 N.3     1  BEN1       -0.3247
     61 C61_       -6.0740    0.7300   -6.0070 C.3     1  BEN1       -0.0468
     62 H62_       -7.0440    0.3820   -3.3920 H       1  BEN1        0.1187
     63 H63_       -6.9120    2.0750   -3.8610 H       1  BEN1        0.1187
     64 H64_       -3.9290   -0.8010   -4.9720 H       1  BEN1        0.0247
     65 H65_       -5.4920   -1.3510   -4.3130 H       1  BEN1        0.0247
     66 H66_       -4.3210   -0.5360   -3.2480 H       1  BEN1        0.0247
     67 H67_       -6.5030    1.7020   -6.2930 H       1  BEN1        0.0247
     68 H68_       -6.8870   -0.0100   -5.9720 H       1  BEN1        0.0247
     69 H69_       -5.3580    0.4250   -6.7860 H       1  BEN1        0.0247
@<TRIPOS>BOND
     1     1     2   ar
     2     1     6   ar
     3     1     7    1
     4     2     8    1
     5     2     3   ar
     6     3     4   ar
     7     3     9    1
     8     4     5   ar
     9     4    10    1
    10     5     6   ar
    11     5    11    1
    12     6    12    1
    13    11    15   am
    14    11    17    1
    15    12    13    1
    16    12    18    1
    17    12    19    1
    18    13    14    1
    19    13    20    1
    20    13    21    1
    21    14    15    1
    22    14    22    1
    23    14    23    1
    24    15    16    2
    25    17    30    1
    26    17    31    1
    27    17    28    1
    28    22    32    1
    29    22    53   am
    30    24    25   ar
    31    24    29   ar
    32    24    33    1
    33    25    26   ar
    34    25    37    1
    35    26    27   ar
    36    26    34    1
    37    27    28   ar
    38    27    35    1
    39    28    29   ar
    40    29    42    1
    41    36    37   ar
    42    36    41   ar
    43    36    43    1
    44    37    38   ar
    45    38    39   ar
    46    38    50    1
    47    39    40   ar
    48    39    44    1
    49    40    41   ar
    50    40    45    1
    51    41    51    1
    52    46    47   ar
    53    46    50   ar
    54    46    52    1
    55    47    48   ar
    56    48    49   ar
    57    49    50   ar
    58    53    54    2
    59    53    55    1
    60    55    56    1
    61    55    57    1
    62    55    58    1
    63    56    59    1
    64    56    60    1
    65    56    61    1
    66    59    64    1
    67    59    65    1
    68    59    66    1
    69    60    62    1
    70    60    63    1
    71    61    67    1
    72    61    68    1
    73    61    69    1
