@<TRIPOS>MOLECULE
GHSM.31.pdb
 79 83 0 0 0
SMALL
GASTEIGER

@<TRIPOS>ATOM
      1  C1        -0.9650    1.1760    1.8830 C.ar    1  BEN1       -0.0568
      2  C2         0.2010    1.8880    2.1810 C.ar    1  BEN1       -0.0614
      3  C3         0.2090    3.2820    2.0930 C.ar    1  BEN1       -0.0600
      4  C4        -0.9460    3.9620    1.6980 C.ar    1  BEN1       -0.0400
      5  C5        -2.1190    3.2540    1.4180 C.ar    1  BEN1        0.0398
      6  C6        -2.1300    1.8570    1.5170 C.ar    1  BEN1       -0.0259
      7  H7        -0.9580    0.0920    1.9400 H       1  BEN1        0.0621
      8  H8         1.1000    1.3570    2.4790 H       1  BEN1        0.0618
      9  H9         1.1130    3.8360    2.3300 H       1  BEN1        0.0618
     10  H10       -0.9240    5.0430    1.6000 H       1  BEN1        0.0636
     11 N11_       -3.2980    3.9470    1.0250 N.am    1  BEN1       -0.2653
     12 C12_       -3.4300    1.0980    1.2270 C.3     1  BEN1       -0.0238
     13 C13_       -3.7200    1.0920   -0.2960 C.3     1  BEN1       -0.0219
     14 C14_       -3.4780    2.4720   -0.9670 C.3     1  BEN1        0.1002
     15 C15_       -3.9910    3.5880   -0.0840 C.2     1  BEN1        0.2404
     16 O16_       -5.0280    4.1440   -0.4080 O.2     1  BEN1       -0.2732
     17 C17_       -3.8240    5.0200    1.8680 C.3     1  BEN1        0.0449
     18  H18       -4.2500    1.6010    1.7610 H       1  BEN1        0.0314
     19  H19       -3.3890    0.0630    1.6050 H       1  BEN1        0.0314
     20  H20       -4.7730    0.8040   -0.4430 H       1  BEN1        0.0291
     21  H21       -3.0890    0.3390   -0.7950 H       1  BEN1        0.0291
     22 N22_       -4.1560    2.4850   -2.2610 N.am    1  BEN1       -0.3025
     23  H23       -2.4000    2.6470   -1.1170 H       1  BEN1        0.0595
     24  C1        -7.4780    4.2860    2.7860 C.ar    2  BEN2       -0.0537
     25  C2        -7.3170    3.2590    3.7200 C.ar    2  BEN2       -0.0170
     26  C3        -6.0350    2.8910    4.1380 C.ar    2  BEN2       -0.0537
     27  C4        -4.9150    3.4980    3.5660 C.ar    2  BEN2       -0.0565
     28  C5        -5.0700    4.4600    2.5620 C.ar    2  BEN2       -0.0297
     29  C6        -6.3550    4.8810    2.2030 C.ar    2  BEN2       -0.0565
     30  H30       -4.0600    5.9060    1.2570 H       1  BEN1        0.0518
     31  H31       -3.1160    5.3360    2.6500 H       1  BEN1        0.0518
     32  H32       -5.0460    2.9430   -2.3290 H       1  BEN1        0.1495
     33  H33       -8.4730    4.6170    2.5060 H       2  BEN2        0.0624
     34  H34       -5.9090    2.1310    4.9020 H       2  BEN2        0.0624
     35  H35       -3.9210    3.2130    3.8990 H       2  BEN2        0.0621
     36  C1        -9.4570    3.2650    4.9780 C.ar    3  BEN3       -0.0532
     37  C2        -8.4980    2.5450    4.2590 C.ar    3  BEN3       -0.0026
     38  C3        -8.6480    1.1650    4.0700 C.ar    3  BEN3        0.0787
     39  C4        -9.7190    0.5050    4.6830 C.ar    3  BEN3       -0.0459
     40  C5       -10.6630    1.2190    5.4260 C.ar    3  BEN3       -0.0609
     41  C6       -10.5410    2.6040    5.5620 C.ar    3  BEN3       -0.0611
     42  H42       -6.4900    5.6660    1.4660 H       2  BEN2        0.0621
     43  H43       -9.3570    4.3400    5.0910 H       3  BEN3        0.0624
     44  H44       -9.8240   -0.5710    4.5800 H       3  BEN3        0.0626
     45  H45      -11.4910    0.6980    5.8970 H       3  BEN3        0.0618
     46  N1        -7.0860    0.7900    2.1590 N.ar    4  TET4       -0.0576
     47  N2        -6.3220   -0.2270    1.7140 N.ar    4  TET4        0.1370
     48  N3        -6.5080   -1.2560    2.5570 N.ar    4  TET4        0.0227
     49  N4        -7.4210   -0.8470    3.5630 N.ar    4  TET4       -0.0564
     50  C1        -7.6810    0.3520    3.2310 C.ar    4  TET4        0.3568
     51  H51      -11.2840    3.1650    6.1200 H       3  BEN3        0.0618
     52  H52       -7.1880    1.7090    1.7110 H       4  TET4        0.4932
     53 C53_       -3.6310    1.8220   -3.3130 C.2     1  BEN1        0.2333
     54 O54_       -2.5610    1.2400   -3.2440 O.2     1  BEN1       -0.2738
     55 C55_       -4.4400    1.8000   -4.5960 C.3     1  BEN1        0.0904
     56 C56_       -3.9680    0.6640   -5.5460 C.3     1  BEN1       -0.0385
     57 C57_       -4.2560    3.1800   -5.2860 C.3     1  BEN1       -0.0385
     58 N58_       -5.8720    1.6300   -4.2380 N.3     1  BEN1       -0.3035
     59  H59       -4.6030    0.6300   -6.4440 H       1  BEN1        0.0252
     60  H60       -4.0260   -0.3110   -5.0400 H       1  BEN1        0.0252
     61  H61       -2.9260    0.8300   -5.8580 H       1  BEN1        0.0252
     62  H62       -3.1890    3.3700   -5.4830 H       1  BEN1        0.0252
     63  H63       -4.6420    3.9850   -4.6420 H       1  BEN1        0.0252
     64  H64       -4.7980    3.2110   -6.2430 H       1  BEN1        0.0252
     65  C65       -6.2660    0.4020   -3.5070 C.3     1  BEN1       -0.0009
     66  H66       -6.5140    1.7870   -5.0960 H       1  BEN1        0.1229
     67  H67       -5.4550    0.0620   -2.8440 H       1  BEN1        0.0425
     68  C68       -7.5100    0.7220   -2.6400 C.3     1  BEN1       -0.0145
     69  H69       -6.4920   -0.4200   -4.2080 H       1  BEN1        0.0425
     70  C70       -7.9110   -0.4740   -1.7340 C.3     1  BEN1        0.0536
     71  H71       -7.2760    1.5870   -1.9990 H       1  BEN1        0.0302
     72  H72       -8.3490    0.9970   -3.3000 H       1  BEN1        0.0302
     73  O73       -6.7940   -0.7690   -0.8790 O.3     1  BEN1       -0.3920
     74  C74       -9.1530   -0.1210   -0.8740 C.3     1  BEN1       -0.0389
     75  H75       -8.1390   -1.3480   -2.3710 H       1  BEN1        0.0591
     76  H76       -9.4380   -0.9790   -0.2460 H       1  BEN1        0.0254
     77  H77      -10.0070    0.1410   -1.5180 H       1  BEN1        0.0254
     78  H78       -8.9270    0.7330   -0.2170 H       1  BEN1        0.0254
     79  H79       -6.9540   -1.4820   -0.2680 H       1  BEN1        0.2098
@<TRIPOS>BOND
     1     1     2   ar
     2     1     6   ar
     3     1     7    1
     4     2     8    1
     5     2     3   ar
     6     3     4   ar
     7     3     9    1
     8     4     5   ar
     9     4    10    1
    10     5     6   ar
    11     5    11    1
    12     6    12    1
    13    11    15   am
    14    11    17    1
    15    12    13    1
    16    12    18    1
    17    12    19    1
    18    13    14    1
    19    13    20    1
    20    13    21    1
    21    14    15    1
    22    14    22    1
    23    14    23    1
    24    15    16    2
    25    17    30    1
    26    17    31    1
    27    17    28    1
    28    22    32    1
    29    22    53   am
    30    24    25   ar
    31    24    29   ar
    32    24    33    1
    33    25    26   ar
    34    25    37    1
    35    26    27   ar
    36    26    34    1
    37    27    28   ar
    38    27    35    1
    39    28    29   ar
    40    29    42    1
    41    36    37   ar
    42    36    41   ar
    43    36    43    1
    44    37    38   ar
    45    38    39   ar
    46    38    50    1
    47    39    40   ar
    48    39    44    1
    49    40    41   ar
    50    40    45    1
    51    41    51    1
    52    46    47   ar
    53    46    50   ar
    54    46    52    1
    55    47    48   ar
    56    48    49   ar
    57    49    50   ar
    58    53    54    2
    59    53    55    1
    60    55    56    1
    61    55    57    1
    62    55    58    1
    63    56    59    1
    64    56    60    1
    65    56    61    1
    66    57    62    1
    67    57    63    1
    68    57    64    1
    69    58    65    1
    70    58    66    1
    71    65    67    1
    72    65    68    1
    73    65    69    1
    74    68    70    1
    75    68    71    1
    76    68    72    1
    77    70    73    1
    78    70    74    1
    79    70    75    1
    80    73    79    1
    81    74    76    1
    82    74    77    1
    83    74    78    1
