@<TRIPOS>MOLECULE
GHSM.18.pdb
 84 88 0 0 0
SMALL
GASTEIGER

@<TRIPOS>ATOM
      1  C1        -0.7240    1.4560    1.8910 C.ar    1  BEN1       -0.0568
      2  C2         0.3770    2.2880    2.1130 C.ar    1  BEN1       -0.0614
      3  C3         0.2490    3.6710    1.9570 C.ar    1  BEN1       -0.0600
      4  C4        -0.9790    4.2180    1.5760 C.ar    1  BEN1       -0.0400
      5  C5        -2.0910    3.3920    1.3840 C.ar    1  BEN1        0.0398
      6  C6        -1.9600    2.0060    1.5350 C.ar    1  BEN1       -0.0259
      7  O7        -8.8520    2.5660    0.8260 O.2     1  BEN1       -0.2512
      8  C8       -10.4500    0.8710    0.3790 C.3     1  BEN1        0.0332
      9  H9        -0.6100    0.3820    1.9970 H       1  BEN1        0.0621
     10  H10        1.3320    1.8610    2.4050 H       1  BEN1        0.0618
     11 N11_       -3.3480    3.9560    1.0290 N.am    1  BEN1       -0.2653
     12 C12_       -3.1820    1.1130    1.3090 C.3     1  BEN1       -0.0238
     13 C13_       -3.4680    1.0110   -0.2100 C.3     1  BEN1       -0.0219
     14 C14_       -3.5090    2.3980   -0.9120 C.3     1  BEN1        0.1002
     15 C15_       -4.0470    3.5150   -0.0440 C.2     1  BEN1        0.2404
     16 O16_       -5.1230    4.0050   -0.3510 O.2     1  BEN1       -0.2732
     17 C17_       -3.8990    5.0500    1.8300 C.3     1  BEN1        0.0449
     18  H18        1.1040    4.3180    2.1290 H       1  BEN1        0.0618
     19  H19       -1.0620    5.2890    1.4230 H       1  BEN1        0.0636
     20  H20       -9.9750   -0.1180    0.4430 H       1  BEN1        0.0342
     21  H21      -11.2560    0.8420   -0.3690 H       1  BEN1        0.0342
     22 N22_       -4.3460    2.2500   -2.0980 N.am    1  BEN1       -0.3039
     23  H23      -10.8780    1.1310    1.3580 H       1  BEN1        0.0342
     24  C1        -7.5210    4.2970    2.8490 C.ar    2  BEN2       -0.0537
     25  C2        -7.3260    3.2760    3.7830 C.ar    2  BEN2       -0.0170
     26  C3        -6.0310    2.9450    4.1940 C.ar    2  BEN2       -0.0537
     27  C4        -4.9300    3.5720    3.6070 C.ar    2  BEN2       -0.0565
     28  C5        -5.1190    4.4860    2.5650 C.ar    2  BEN2       -0.0297
     29  C6        -6.4180    4.8740    2.2150 C.ar    2  BEN2       -0.0565
     30  H30       -4.0470    1.5530    1.8320 H       1  BEN1        0.0314
     31  H31       -3.0290    0.1050    1.7290 H       1  BEN1        0.0314
     32  H32       -4.4480    0.5200   -0.3270 H       1  BEN1        0.0291
     33  H33       -2.7130    0.3760   -0.7010 H       1  BEN1        0.0291
     34  H34       -2.4910    2.7070   -1.2040 H       1  BEN1        0.0595
     35  H35       -4.1660    5.9010    1.1830 H       1  BEN1        0.0518
     36  C1        -9.4570    3.1530    5.0750 C.ar    3  BEN3       -0.0532
     37  C2        -8.4740    2.5080    4.3190 C.ar    3  BEN3       -0.0026
     38  C3        -8.5490    1.1290    4.0950 C.ar    3  BEN3        0.0787
     39  C4        -9.5010    0.3750    4.7890 C.ar    3  BEN3       -0.0459
     40  C5       -10.4480    1.0090    5.5990 C.ar    3  BEN3       -0.0609
     41  C6       -10.4470    2.4020    5.7160 C.ar    3  BEN3       -0.0611
     42  H42       -3.1980    5.4200    2.5940 H       1  BEN1        0.0518
     43  H43       -5.2930    2.5520   -2.0280 H       1  BEN1        0.1494
     44  H44       -8.5250    4.6280    2.6030 H       2  BEN2        0.0624
     45  H45       -5.8800    2.1980    4.9660 H       2  BEN2        0.0624
     46  N1        -7.2050    0.9840    2.0100 N.ar    4  TET4       -0.0576
     47  N2        -6.4220    0.0660    1.4120 N.ar    4  TET4        0.1370
     48  N3        -6.4080   -1.0150    2.2110 N.ar    4  TET4        0.0227
     49  N4        -7.2240   -0.7470    3.3410 N.ar    4  TET4       -0.0564
     50  C1        -7.6260    0.4370    3.1140 C.ar    4  TET4        0.3568
     51  H51       -3.9280    3.3360    3.9520 H       2  BEN2        0.0621
     52  H52       -6.5790    5.6210    1.4440 H       2  BEN2        0.0621
     53 C53_       -3.8820    1.6810   -3.2260 C.2     1  BEN1        0.2154
     54 O54_       -2.7390    1.2670   -3.3210 O.2     1  BEN1       -0.2757
     55 C55_       -4.8320    1.5680   -4.3940 C.3     1  BEN1        0.0417
     56 C56_       -6.0960    0.7320   -4.0220 C.3     1  BEN1        0.0219
     57  H57       -9.4470    4.2340    5.1730 H       3  BEN3        0.0624
     58  H58       -9.5120   -0.7070    4.6950 H       3  BEN3        0.0626
     59 C59_       -5.6300   -0.6810   -3.5570 C.3     1  BEN1       -0.0466
     60 N60_       -6.8890    1.3600   -2.9290 N.3     1  BEN1       -0.3071
     61 C61_       -6.9890    0.5720   -5.2850 C.3     1  BEN1       -0.0466
     62  H62      -11.1860    0.4200    6.1350 H       3  BEN3        0.0618
     63  C63       -7.6700    2.6090   -3.1080 C.3     1  BEN1        0.0333
     64  H64      -11.2100    2.8990    6.3070 H       3  BEN3        0.0618
     65  H65       -7.4600    1.9100    1.6320 H       4  TET4        0.4932
     66  H66       -4.3020    1.0950   -5.2350 H       1  BEN1        0.0376
     67  H67       -5.1130    2.5830   -4.7080 H       1  BEN1        0.0376
     68  H68       -6.4910   -1.3490   -3.4030 H       1  BEN1        0.0247
     69  H69       -5.0800   -0.6110   -2.6070 H       1  BEN1        0.0247
     70  H70       -4.9700   -1.1460   -4.3060 H       1  BEN1        0.0247
     71  H71       -7.5150    0.6210   -2.4390 H       1  BEN1        0.1226
     72  C72       -8.2400    3.0000   -1.7160 C.3     1  BEN1        0.1127
     73  C73       -9.0020    4.3490   -1.7640 C.3     1  BEN1       -0.0265
     74  H74       -7.2500    1.5530   -5.7080 H       1  BEN1        0.0247
     75  O75       -9.1330    1.9310   -1.3270 O.3     1  BEN1       -0.4605
     76  H76       -7.9200    0.0430   -5.0270 H       1  BEN1        0.0247
     77  H77       -6.4660   -0.0060   -6.0620 H       1  BEN1        0.0247
     78  H78       -8.5140    2.4490   -3.7980 H       1  BEN1        0.0460
     79  C79       -9.4140    1.8830   -0.0180 C.2     1  BEN1        0.3042
     80  H80       -7.0430    3.4220   -3.5040 H       1  BEN1        0.0460
     81  H81       -7.3840    3.0850   -1.0260 H       1  BEN1        0.0744
     82  H82       -9.8520    4.2740   -2.4580 H       1  BEN1        0.0266
     83  H83       -8.3340    5.1550   -2.1040 H       1  BEN1        0.0266
     84  H84       -9.3850    4.6110   -0.7660 H       1  BEN1        0.0266
@<TRIPOS>BOND
     1     1     2   ar
     2     1     6   ar
     3     1     9    1
     4     2     3   ar
     5     2    10    1
     6     3     4   ar
     7     3    18    1
     8     4     5   ar
     9     4    19    1
    10     5     6   ar
    11     5    11    1
    12     6    12    1
    13     7    79    2
    14     8    79    1
    15     8    20    1
    16     8    21    1
    17     8    23    1
    18    11    15   am
    19    11    17    1
    20    12    13    1
    21    12    30    1
    22    12    31    1
    23    13    14    1
    24    13    32    1
    25    13    33    1
    26    14    15    1
    27    14    22    1
    28    14    34    1
    29    15    16    2
    30    17    28    1
    31    17    35    1
    32    17    42    1
    33    22    43    1
    34    22    53   am
    35    24    25   ar
    36    24    29   ar
    37    24    44    1
    38    25    26   ar
    39    25    37    1
    40    26    27   ar
    41    26    45    1
    42    27    28   ar
    43    27    51    1
    44    28    29   ar
    45    29    52    1
    46    36    37   ar
    47    36    41   ar
    48    36    57    1
    49    37    38   ar
    50    38    39   ar
    51    38    50    1
    52    39    40   ar
    53    39    58    1
    54    40    41   ar
    55    40    62    1
    56    41    64    1
    57    46    47   ar
    58    46    50   ar
    59    46    65    1
    60    47    48   ar
    61    48    49   ar
    62    49    50   ar
    63    53    54    2
    64    53    55    1
    65    55    56    1
    66    55    66    1
    67    55    67    1
    68    56    59    1
    69    56    60    1
    70    56    61    1
    71    59    68    1
    72    59    69    1
    73    59    70    1
    74    60    63    1
    75    60    71    1
    76    61    74    1
    77    61    76    1
    78    61    77    1
    79    63    72    1
    80    63    78    1
    81    63    80    1
    82    72    73    1
    83    72    75    1
    84    72    81    1
    85    73    82    1
    86    73    83    1
    87    73    84    1
    88    75    79    1
