@<TRIPOS>MOLECULE
GHSM.17.pdb
 79 83 0 0 0
SMALL
GASTEIGER

@<TRIPOS>ATOM
      1  C1        -0.9880    1.1780    1.9200 C.ar    1  BEN1       -0.0568
      2  C2         0.1810    1.8860    2.2100 C.ar    1  BEN1       -0.0614
      3  C3         0.1970    3.2790    2.1120 C.ar    1  BEN1       -0.0600
      4  C4        -0.9550    3.9620    1.7100 C.ar    1  BEN1       -0.0400
      5  C5        -2.1310    3.2570    1.4350 C.ar    1  BEN1        0.0398
      6  C6        -2.1510    1.8610    1.5480 C.ar    1  BEN1       -0.0259
      7  H7        -0.9860    0.0940    1.9870 H       1  BEN1        0.0621
      8  H8         1.0780    1.3530    2.5120 H       1  BEN1        0.0618
      9  H9         1.1030    3.8300    2.3440 H       1  BEN1        0.0618
     10  H10       -0.9280    5.0410    1.6050 H       1  BEN1        0.0636
     11 N11_       -3.3040    3.9550    1.0320 N.am    1  BEN1       -0.2653
     12 C12_       -3.4530    1.1000    1.2680 C.3     1  BEN1       -0.0238
     13 C13_       -3.7380    1.0680   -0.2560 C.3     1  BEN1       -0.0219
     14 C14_       -3.5040    2.4450   -0.9330 C.3     1  BEN1        0.1002
     15 C15_       -4.0040    3.5820   -0.0680 C.2     1  BEN1        0.2404
     16 O16_       -5.0350    4.1470   -0.4020 O.2     1  BEN1       -0.2732
     17 C17_       -3.8310    5.0330    1.8670 C.3     1  BEN1        0.0449
     18  H18       -4.2740    1.6150    1.7880 H       1  BEN1        0.0314
     19  H19       -3.4160    0.0720    1.6650 H       1  BEN1        0.0314
     20  H20       -4.7860    0.7640   -0.4090 H       1  BEN1        0.0291
     21  H21       -3.0930    0.3200   -0.7450 H       1  BEN1        0.0291
     22 N22_       -4.2010    2.4570   -2.2140 N.am    1  BEN1       -0.3039
     23  H23       -2.4280    2.6170   -1.0990 H       1  BEN1        0.0595
     24  C1        -7.4850    4.2900    2.7900 C.ar    2  BEN2       -0.0537
     25  C2        -7.3160    3.2630    3.7230 C.ar    2  BEN2       -0.0170
     26  C3        -6.0320    2.9030    4.1390 C.ar    2  BEN2       -0.0537
     27  C4        -4.9160    3.5170    3.5650 C.ar    2  BEN2       -0.0565
     28  C5        -5.0790    4.4770    2.5620 C.ar    2  BEN2       -0.0297
     29  C6        -6.3670    4.8910    2.2040 C.ar    2  BEN2       -0.0565
     30  H30       -4.0690    5.9150    1.2510 H       1  BEN1        0.0518
     31  H31       -3.1240    5.3550    2.6470 H       1  BEN1        0.0518
     32  H32       -5.1100    2.8640   -2.2420 H       1  BEN1        0.1494
     33  H33       -8.4830    4.6140    2.5110 H       2  BEN2        0.0624
     34  H34       -5.8990    2.1450    4.9050 H       2  BEN2        0.0624
     35  H35       -3.9210    3.2370    3.8970 H       2  BEN2        0.0621
     36  C1        -9.4470    3.2320    5.0050 C.ar    3  BEN3       -0.0532
     37  C2        -8.4840    2.5330    4.2710 C.ar    3  BEN3       -0.0026
     38  C3        -8.6090    1.1520    4.0750 C.ar    3  BEN3        0.0787
     39  C4        -9.6400    0.4630    4.7250 C.ar    3  BEN3       -0.0459
     40  C5       -10.5820    1.1540    5.4920 C.ar    3  BEN3       -0.0609
     41  C6       -10.4980    2.5430    5.6150 C.ar    3  BEN3       -0.0611
     42  H42       -6.5070    5.6750    1.4670 H       2  BEN2        0.0621
     43  H43       -9.3750    4.3110    5.1090 H       3  BEN3        0.0624
     44  H44       -9.7150   -0.6160    4.6300 H       3  BEN3        0.0626
     45  H45      -11.3810    0.6120    5.9900 H       3  BEN3        0.0618
     46  N1        -7.1230    0.8420    2.0960 N.ar    4  TET4       -0.0576
     47  N2        -6.3560   -0.1500    1.6020 N.ar    4  TET4        0.1370
     48  N3        -6.4720   -1.1920    2.4430 N.ar    4  TET4        0.0227
     49  N4        -7.3530   -0.8210    3.4920 N.ar    4  TET4       -0.0564
     50  C1        -7.6600    0.3740    3.1870 C.ar    4  TET4        0.3568
     51  H51      -11.2460    3.0860    6.1870 H       3  BEN3        0.0618
     52  H52       -7.2710    1.7640    1.6650 H       4  TET4        0.4932
     53 C53_       -3.6820    1.8440   -3.2930 C.2     1  BEN1        0.2154
     54 O54_       -2.6070    1.2690   -3.2550 O.2     1  BEN1       -0.2757
     55 C55_       -4.4650    1.8920   -4.5810 C.3     1  BEN1        0.0417
     56 C56_       -5.8780    1.2550   -4.4320 C.3     1  BEN1        0.0219
     57  H57       -3.8970    1.3490   -5.3530 H       1  BEN1        0.0376
     58  H58       -4.5350    2.9400   -4.9050 H       1  BEN1        0.0376
     59 C59_       -5.7060   -0.2100   -3.9250 C.3     1  BEN1       -0.0466
     60 N60_       -6.6940    2.0040   -3.4330 N.3     1  BEN1       -0.3082
     61 C61_       -6.5810    1.2200   -5.8200 C.3     1  BEN1       -0.0466
     62  H62       -6.6720   -0.7370   -3.9170 H       1  BEN1        0.0247
     63  C63       -7.2030    3.3720   -3.7190 C.3     1  BEN1        0.0222
     64  H64       -5.3080   -0.2170   -2.8990 H       1  BEN1        0.0247
     65  H65       -5.0150   -0.7740   -4.5690 H       1  BEN1        0.0247
     66  H66       -7.5080    1.3870   -3.0720 H       1  BEN1        0.1225
     67  H67       -6.5830    2.2140   -6.2910 H       1  BEN1        0.0247
     68  H68       -7.6210    0.8790   -5.7090 H       1  BEN1        0.0247
     69  H69       -6.0590    0.5300   -6.5010 H       1  BEN1        0.0247
     70  H70       -7.8170    3.3820   -4.6330 H       1  BEN1        0.0449
     71  H71       -6.3660    4.0700   -3.8660 H       1  BEN1        0.0449
     72  C72       -8.0930    3.8980   -2.5520 C.3     1  BEN1        0.0649
     73  C73       -8.4680    5.3900   -2.7500 C.3     1  BEN1       -0.0377
     74  O74       -7.4950    3.7020   -1.2570 O.3     1  BEN1       -0.3908
     75  H75       -9.0240    3.3050   -2.5370 H       1  BEN1        0.0603
     76  H76       -8.9960    5.5330   -3.7060 H       1  BEN1        0.0255
     77  H77       -7.5630    6.0170   -2.7480 H       1  BEN1        0.0255
     78  H78       -9.1240    5.7210   -1.9300 H       1  BEN1        0.0255
     79  H79       -6.6940    4.2010   -1.1130 H       1  BEN1        0.2098
@<TRIPOS>BOND
     1     1     2   ar
     2     1     6   ar
     3     1     7    1
     4     2     8    1
     5     2     3   ar
     6     3     4   ar
     7     3     9    1
     8     4     5   ar
     9     4    10    1
    10     5     6   ar
    11     5    11    1
    12     6    12    1
    13    11    15   am
    14    11    17    1
    15    12    13    1
    16    12    18    1
    17    12    19    1
    18    13    14    1
    19    13    20    1
    20    13    21    1
    21    14    15    1
    22    14    22    1
    23    14    23    1
    24    15    16    2
    25    17    30    1
    26    17    31    1
    27    17    28    1
    28    22    32    1
    29    22    53   am
    30    24    25   ar
    31    24    29   ar
    32    24    33    1
    33    25    26   ar
    34    25    37    1
    35    26    27   ar
    36    26    34    1
    37    27    28   ar
    38    27    35    1
    39    28    29   ar
    40    29    42    1
    41    36    37   ar
    42    36    41   ar
    43    36    43    1
    44    37    38   ar
    45    38    39   ar
    46    38    50    1
    47    39    40   ar
    48    39    44    1
    49    40    41   ar
    50    40    45    1
    51    41    51    1
    52    46    47   ar
    53    46    50   ar
    54    46    52    1
    55    47    48   ar
    56    48    49   ar
    57    49    50   ar
    58    53    54    2
    59    53    55    1
    60    55    56    1
    61    55    57    1
    62    55    58    1
    63    56    59    1
    64    56    60    1
    65    56    61    1
    66    59    62    1
    67    59    64    1
    68    59    65    1
    69    60    63    1
    70    60    66    1
    71    61    67    1
    72    61    68    1
    73    61    69    1
    74    63    70    1
    75    63    71    1
    76    63    72    1
    77    72    73    1
    78    72    74    1
    79    72    75    1
    80    73    76    1
    81    73    77    1
    82    73    78    1
    83    74    79    1
