@<TRIPOS>MOLECULE
GHSM.28.pdb
 79 83 0 0 0
SMALL
GASTEIGER

@<TRIPOS>ATOM
      1  C1        -0.9980    1.1600    1.8960 C.ar    1  BEN1       -0.0568
      2  C2         0.1780    1.8610    2.1800 C.ar    1  BEN1       -0.0614
      3  C3         0.2000    3.2550    2.0900 C.ar    1  BEN1       -0.0600
      4  C4        -0.9500    3.9460    1.6990 C.ar    1  BEN1       -0.0400
      5  C5        -2.1310    3.2490    1.4260 C.ar    1  BEN1        0.0398
      6  C6        -2.1600    1.8520    1.5370 C.ar    1  BEN1       -0.0259
      7  H7        -1.0020    0.0770    1.9560 H       1  BEN1        0.0621
      8  H8         1.0740    1.3210    2.4720 H       1  BEN1        0.0618
      9  H9         1.1100    3.8000    2.3200 H       1  BEN1        0.0618
     10  H10       -0.9180    5.0260    1.5990 H       1  BEN1        0.0636
     11 N11_       -3.3030    3.9520    1.0280 N.am    1  BEN1       -0.2653
     12 C12_       -3.4720    1.1050    1.2680 C.3     1  BEN1       -0.0238
     13 C13_       -3.7870    1.0870   -0.2510 C.3     1  BEN1       -0.0219
     14 C14_       -3.5070    2.4490   -0.9410 C.3     1  BEN1        0.1002
     15 C15_       -4.0070    3.5820   -0.0710 C.2     1  BEN1        0.2404
     16 O16_       -5.0440    4.1390   -0.3950 O.2     1  BEN1       -0.2732
     17 C17_       -3.8240    5.0290    1.8690 C.3     1  BEN1        0.0449
     18  H18       -4.2780    1.6230    1.8060 H       1  BEN1        0.0314
     19  H19       -3.4380    0.0740    1.6570 H       1  BEN1        0.0314
     20  H20       -4.8470    0.8210   -0.3920 H       1  BEN1        0.0291
     21  H21       -3.1760    0.3140   -0.7460 H       1  BEN1        0.0291
     22 N22_       -4.1780    2.4600   -2.2390 N.am    1  BEN1       -0.3039
     23  H23       -2.4240    2.6020   -1.0850 H       1  BEN1        0.0595
     24  C1        -7.4780    4.2980    2.7950 C.ar    2  BEN2       -0.0537
     25  C2        -7.3140    3.2650    3.7230 C.ar    2  BEN2       -0.0170
     26  C3        -6.0310    2.9040    4.1430 C.ar    2  BEN2       -0.0537
     27  C4        -4.9130    3.5160    3.5720 C.ar    2  BEN2       -0.0565
     28  C5        -5.0710    4.4780    2.5690 C.ar    2  BEN2       -0.0297
     29  C6        -6.3570    4.9000    2.2160 C.ar    2  BEN2       -0.0565
     30  H30       -4.0600    5.9130    1.2550 H       1  BEN1        0.0518
     31  H31       -3.1120    5.3460    2.6460 H       1  BEN1        0.0518
     32  H32       -5.0670    2.9110   -2.3070 H       1  BEN1        0.1494
     33  H33       -8.4740    4.6260    2.5160 H       2  BEN2        0.0624
     34  H34       -5.9020    2.1440    4.9090 H       2  BEN2        0.0624
     35  H35       -3.9190    3.2340    3.9060 H       2  BEN2        0.0621
     36  C1        -9.4560    3.2440    4.9800 C.ar    3  BEN3       -0.0532
     37  C2        -8.4890    2.5380    4.2570 C.ar    3  BEN3       -0.0026
     38  C3        -8.6260    1.1580    4.0570 C.ar    3  BEN3        0.0787
     39  C4        -9.6850    0.4810    4.6730 C.ar    3  BEN3       -0.0459
     40  C5       -10.6380    1.1810    5.4190 C.ar    3  BEN3       -0.0609
     41  C6       -10.5330    2.5670    5.5590 C.ar    3  BEN3       -0.0611
     42  H42       -6.4930    5.6910    1.4840 H       2  BEN2        0.0621
     43  H43       -9.3680    4.3190    5.1000 H       3  BEN3        0.0624
     44  H44       -9.7740   -0.5960    4.5680 H       3  BEN3        0.0626
     45  H45      -11.4590    0.6480    5.8880 H       3  BEN3        0.0618
     46  N1        -7.0820    0.8210    2.1270 N.ar    4  TET4       -0.0576
     47  N2        -6.3170   -0.1830    1.6570 N.ar    4  TET4        0.1370
     48  N3        -6.4760   -1.2220    2.4950 N.ar    4  TET4        0.0227
     49  N4        -7.3820   -0.8360    3.5160 N.ar    4  TET4       -0.0564
     50  C1        -7.6600    0.3640    3.2000 C.ar    4  TET4        0.3568
     51  H51      -11.2850    3.1160    6.1180 H       3  BEN3        0.0618
     52  H52       -7.2000    1.7450    1.6920 H       4  TET4        0.4932
     53 C53_       -3.6300    1.8120   -3.2860 C.2     1  BEN1        0.2154
     54 O54_       -2.5690    1.2190   -3.1810 O.2     1  BEN1       -0.2757
     55 C55_       -4.3300    1.8180   -4.6220 C.3     1  BEN1        0.0417
     56 C56_       -5.7570    1.1990   -4.5330 C.3     1  BEN1        0.0219
     57  H57       -3.7270    1.2320   -5.3330 H       1  BEN1        0.0376
     58  H58       -4.3550    2.8500   -4.9960 H       1  BEN1        0.0376
     59 C59_       -5.6380   -0.2430   -3.9540 C.3     1  BEN1       -0.0466
     60 N60_       -6.6190    1.9960   -3.6150 N.3     1  BEN1       -0.3082
     61 C61_       -6.3790    1.1150   -5.9570 C.3     1  BEN1       -0.0466
     62  H62       -6.6120   -0.7560   -3.9800 H       1  BEN1        0.0247
     63  C63       -7.0740    3.3530   -4.0160 C.3     1  BEN1        0.0222
     64  H64       -5.3010   -0.2110   -2.9070 H       1  BEN1        0.0247
     65  H65       -4.9200   -0.8450   -4.5320 H       1  BEN1        0.0247
     66  H66       -7.4810    1.4190   -3.2980 H       1  BEN1        0.1225
     67  H67       -6.3480    2.0910   -6.4630 H       1  BEN1        0.0247
     68  H68       -7.4260    0.7830   -5.8940 H       1  BEN1        0.0247
     69  H69       -5.8240    0.3970   -6.5800 H       1  BEN1        0.0247
     70  H70       -7.7130    3.2970   -4.9110 H       1  BEN1        0.0449
     71  H71       -6.2250    4.0180   -4.2330 H       1  BEN1        0.0449
     72  C72       -7.9270    3.9810   -2.8820 C.3     1  BEN1        0.0649
     73  C73       -8.4020    5.4070   -3.2660 C.3     1  BEN1       -0.0377
     74  O74       -9.0610    3.1200   -2.6670 O.3     1  BEN1       -0.3908
     75  H75       -7.3150    4.0300   -1.9630 H       1  BEN1        0.0603
     76  H76       -9.0280    5.3670   -4.1700 H       1  BEN1        0.0255
     77  H77       -7.5390    6.0630   -3.4610 H       1  BEN1        0.0255
     78  H78       -8.9950    5.8450   -2.4490 H       1  BEN1        0.0255
     79  H79       -9.6310    3.4210   -1.9670 H       1  BEN1        0.2098
@<TRIPOS>BOND
     1     1     2   ar
     2     1     6   ar
     3     1     7    1
     4     2     8    1
     5     2     3   ar
     6     3     4   ar
     7     3     9    1
     8     4     5   ar
     9     4    10    1
    10     5     6   ar
    11     5    11    1
    12     6    12    1
    13    11    15   am
    14    11    17    1
    15    12    13    1
    16    12    18    1
    17    12    19    1
    18    13    14    1
    19    13    20    1
    20    13    21    1
    21    14    15    1
    22    14    22    1
    23    14    23    1
    24    15    16    2
    25    17    30    1
    26    17    31    1
    27    17    28    1
    28    22    32    1
    29    22    53   am
    30    24    25   ar
    31    24    29   ar
    32    24    33    1
    33    25    26   ar
    34    25    37    1
    35    26    27   ar
    36    26    34    1
    37    27    28   ar
    38    27    35    1
    39    28    29   ar
    40    29    42    1
    41    36    37   ar
    42    36    41   ar
    43    36    43    1
    44    37    38   ar
    45    38    39   ar
    46    38    50    1
    47    39    40   ar
    48    39    44    1
    49    40    41   ar
    50    40    45    1
    51    41    51    1
    52    46    47   ar
    53    46    50   ar
    54    46    52    1
    55    47    48   ar
    56    48    49   ar
    57    49    50   ar
    58    53    54    2
    59    53    55    1
    60    55    56    1
    61    55    57    1
    62    55    58    1
    63    56    59    1
    64    56    60    1
    65    56    61    1
    66    59    62    1
    67    59    64    1
    68    59    65    1
    69    60    63    1
    70    60    66    1
    71    61    67    1
    72    61    68    1
    73    61    69    1
    74    63    70    1
    75    63    71    1
    76    63    72    1
    77    72    73    1
    78    72    74    1
    79    72    75    1
    80    73    76    1
    81    73    77    1
    82    73    78    1
    83    74    79    1
