@<TRIPOS>MOLECULE
GHSM.23.pdb
 85 89 0 0 0
SMALL
GASTEIGER

@<TRIPOS>ATOM
      1  C1        -1.0040    1.1550    1.8990 C.ar    1  BEN1       -0.0568
      2  C2         0.1730    1.8520    2.1860 C.ar    1  BEN1       -0.0614
      3  C3         0.2000    3.2460    2.0980 C.ar    1  BEN1       -0.0600
      4  C4        -0.9480    3.9410    1.7060 C.ar    1  BEN1       -0.0400
      5  C5        -2.1300    3.2480    1.4300 C.ar    1  BEN1        0.0398
      6  C6        -2.1630    1.8510    1.5400 C.ar    1  BEN1       -0.0259
      7  H7        -1.0100    0.0720    1.9580 H       1  BEN1        0.0621
      8  H8         1.0680    1.3100    2.4780 H       1  BEN1        0.0618
      9  H9         1.1120    3.7880    2.3300 H       1  BEN1        0.0618
     10  H10       -0.9120    5.0210    1.6070 H       1  BEN1        0.0636
     11 N11_       -3.2980    3.9550    1.0290 N.am    1  BEN1       -0.2653
     12 C12_       -3.4780    1.1080    1.2710 C.3     1  BEN1       -0.0238
     13 C13_       -3.7980    1.0920   -0.2460 C.3     1  BEN1       -0.0219
     14 C14_       -3.5070    2.4510   -0.9400 C.3     1  BEN1        0.1002
     15 C15_       -4.0020    3.5870   -0.0700 C.2     1  BEN1        0.2404
     16 O16_       -5.0350    4.1500   -0.3970 O.2     1  BEN1       -0.2732
     17 C17_       -3.8210    5.0310    1.8700 C.3     1  BEN1        0.0449
     18  H18       -4.2820    1.6280    1.8110 H       1  BEN1        0.0314
     19  H19       -3.4470    0.0770    1.6600 H       1  BEN1        0.0314
     20  H20       -4.8610    0.8350   -0.3840 H       1  BEN1        0.0291
     21  H21       -3.1940    0.3150   -0.7430 H       1  BEN1        0.0291
     22 N22_       -4.1860    2.4640   -2.2330 N.am    1  BEN1       -0.3039
     23  H23       -2.4240    2.5960   -1.0870 H       1  BEN1        0.0595
     24  C1        -7.4760    4.2950    2.7880 C.ar    2  BEN2       -0.0537
     25  C2        -7.3130    3.2640    3.7180 C.ar    2  BEN2       -0.0170
     26  C3        -6.0300    2.9020    4.1390 C.ar    2  BEN2       -0.0537
     27  C4        -4.9120    3.5150    3.5700 C.ar    2  BEN2       -0.0565
     28  C5        -5.0690    4.4790    2.5680 C.ar    2  BEN2       -0.0297
     29  C6        -6.3550    4.8990    2.2120 C.ar    2  BEN2       -0.0565
     30  H30       -4.0560    5.9160    1.2570 H       1  BEN1        0.0518
     31  H31       -3.1100    5.3470    2.6490 H       1  BEN1        0.0518
     32  H32       -5.0710    2.9240   -2.2980 H       1  BEN1        0.1494
     33  H33       -8.4720    4.6220    2.5070 H       2  BEN2        0.0624
     34  H34       -5.9020    2.1420    4.9040 H       2  BEN2        0.0624
     35  H35       -3.9180    3.2330    3.9050 H       2  BEN2        0.0621
     36  C1        -9.4540    3.2470    4.9780 C.ar    3  BEN3       -0.0532
     37  C2        -8.4880    2.5380    4.2550 C.ar    3  BEN3       -0.0026
     38  C3        -8.6260    1.1580    4.0600 C.ar    3  BEN3        0.0787
     39  C4        -9.6840    0.4830    4.6800 C.ar    3  BEN3       -0.0459
     40  C5       -10.6340    1.1850    5.4260 C.ar    3  BEN3       -0.0609
     41  C6       -10.5290    2.5720    5.5610 C.ar    3  BEN3       -0.0611
     42  H42       -6.4910    5.6890    1.4800 H       2  BEN2        0.0621
     43  H43       -9.3660    4.3220    5.0930 H       3  BEN3        0.0624
     44  H44       -9.7740   -0.5940    4.5790 H       3  BEN3        0.0626
     45  H45      -11.4550    0.6540    5.9000 H       3  BEN3        0.0618
     46  N1        -7.0870    0.8150    2.1270 N.ar    4  TET4       -0.0576
     47  N2        -6.3240   -0.1910    1.6570 N.ar    4  TET4        0.1370
     48  N3        -6.4810   -1.2270    2.4990 N.ar    4  TET4        0.0227
     49  N4        -7.3850   -0.8380    3.5210 N.ar    4  TET4       -0.0564
     50  C1        -7.6630    0.3610    3.2030 C.ar    4  TET4        0.3568
     51  H51      -11.2800    3.1230    6.1200 H       3  BEN3        0.0618
     52  H52       -7.2060    1.7380    1.6900 H       4  TET4        0.4932
     53 C53_       -3.6520    1.8090   -3.2820 C.2     1  BEN1        0.2154
     54 O54_       -2.5960    1.2070   -3.1830 O.2     1  BEN1       -0.2757
     55 C55_       -4.3620    1.8200   -4.6130 C.3     1  BEN1        0.0417
     56 C56_       -5.7950    1.2140   -4.5090 C.3     1  BEN1        0.0219
     57  H57       -3.7720    1.2240   -5.3260 H       1  BEN1        0.0376
     58  H58       -4.3770    2.8500   -4.9920 H       1  BEN1        0.0376
     59 C59_       -5.6850   -0.2280   -3.9290 C.3     1  BEN1       -0.0466
     60 N60_       -6.6430    2.0210   -3.5860 N.3     1  BEN1       -0.3082
     61 C61_       -6.4290    1.1350   -5.9280 C.3     1  BEN1       -0.0466
     62  H62       -6.6640   -0.7310   -3.9460 H       1  BEN1        0.0247
     63  C63       -7.0900    3.3800   -3.9850 C.3     1  BEN1        0.0227
     64  H64       -5.3370   -0.1980   -2.8850 H       1  BEN1        0.0247
     65  H65       -4.9790   -0.8380   -4.5130 H       1  BEN1        0.0247
     66  H66       -7.5050    1.4510   -3.2550 H       1  BEN1        0.1225
     67  H67       -6.3930    2.1090   -6.4360 H       1  BEN1        0.0247
     68  H68       -7.4800    0.8130   -5.8540 H       1  BEN1        0.0247
     69  H69       -5.8880    0.4100   -6.5540 H       1  BEN1        0.0247
     70  H70       -7.7420    3.3060   -4.8670 H       1  BEN1        0.0449
     71  H71       -6.2310    4.0180   -4.2290 H       1  BEN1        0.0449
     72  C72       -7.9140    4.0230   -2.8360 C.3     1  BEN1        0.0700
     73  C73       -8.4330    5.4670   -3.1350 C.3     1  BEN1       -0.0194
     74  O74       -9.0170    3.1320   -2.5740 O.3     1  BEN1       -0.3903
     75  H75       -7.2690    4.0560   -1.9400 H       1  BEN1        0.0608
     76  H76       -8.9870    5.7900   -2.2350 H       1  BEN1        0.0321
     77  C77       -9.4290    5.5200   -4.3280 C.3     1  BEN1       -0.0603
     78  C78       -7.2830    6.4920   -3.3480 C.3     1  BEN1       -0.0603
     79  H79       -9.5560    3.4040   -1.8390 H       1  BEN1        0.2098
     80  H80      -10.2330    4.7800   -4.1960 H       1  BEN1        0.0233
     81  H81       -8.9210    5.3220   -5.2840 H       1  BEN1        0.0233
     82  H82       -9.8880    6.5190   -4.3920 H       1  BEN1        0.0233
     83  H83       -7.6900    7.5150   -3.3720 H       1  BEN1        0.0233
     84  H84       -6.7600    6.3190   -4.2990 H       1  BEN1        0.0233
     85  H85       -6.5540    6.4310   -2.5250 H       1  BEN1        0.0233
@<TRIPOS>BOND
     1     1     2   ar
     2     1     6   ar
     3     1     7    1
     4     2     8    1
     5     2     3   ar
     6     3     4   ar
     7     3     9    1
     8     4     5   ar
     9     4    10    1
    10     5     6   ar
    11     5    11    1
    12     6    12    1
    13    11    15   am
    14    11    17    1
    15    12    13    1
    16    12    18    1
    17    12    19    1
    18    13    14    1
    19    13    20    1
    20    13    21    1
    21    14    15    1
    22    14    22    1
    23    14    23    1
    24    15    16    2
    25    17    30    1
    26    17    31    1
    27    17    28    1
    28    22    32    1
    29    22    53   am
    30    24    25   ar
    31    24    29   ar
    32    24    33    1
    33    25    26   ar
    34    25    37    1
    35    26    27   ar
    36    26    34    1
    37    27    28   ar
    38    27    35    1
    39    28    29   ar
    40    29    42    1
    41    36    37   ar
    42    36    41   ar
    43    36    43    1
    44    37    38   ar
    45    38    39   ar
    46    38    50    1
    47    39    40   ar
    48    39    44    1
    49    40    41   ar
    50    40    45    1
    51    41    51    1
    52    46    47   ar
    53    46    50   ar
    54    46    52    1
    55    47    48   ar
    56    48    49   ar
    57    49    50   ar
    58    53    54    2
    59    53    55    1
    60    55    56    1
    61    55    57    1
    62    55    58    1
    63    56    59    1
    64    56    60    1
    65    56    61    1
    66    59    62    1
    67    59    64    1
    68    59    65    1
    69    60    63    1
    70    60    66    1
    71    61    67    1
    72    61    68    1
    73    61    69    1
    74    63    70    1
    75    63    71    1
    76    63    72    1
    77    72    73    1
    78    72    74    1
    79    72    75    1
    80    73    76    1
    81    73    77    1
    82    73    78    1
    83    74    79    1
    84    77    80    1
    85    77    81    1
    86    77    82    1
    87    78    83    1
    88    78    84    1
    89    78    85    1
