@<TRIPOS>MOLECULE
GHSM.20.pdb
 81 85 0 0 0
SMALL
GASTEIGER

@<TRIPOS>ATOM
      1  C1        -1.0100    1.1640    1.9100 C.ar    1  BEN1       -0.0568
      2  C2         0.1670    1.8660    2.1880 C.ar    1  BEN1       -0.0614
      3  C3         0.1900    3.2590    2.0830 C.ar    1  BEN1       -0.0600
      4  C4        -0.9590    3.9480    1.6860 C.ar    1  BEN1       -0.0400
      5  C5        -2.1420    3.2480    1.4230 C.ar    1  BEN1        0.0398
      6  C6        -2.1710    1.8530    1.5450 C.ar    1  BEN1       -0.0259
      7  O7        -7.2730    5.2780   -2.7620 O.2     1  BEN1       -0.2494
      8  H8        -1.0140    0.0810    1.9820 H       1  BEN1        0.0621
      9  H9         1.0620    1.3290    2.4850 H       1  BEN1        0.0618
     10  H10        1.1020    3.8060    2.3050 H       1  BEN1        0.0618
     11 N11_       -3.3140    3.9490    1.0240 N.am    1  BEN1       -0.2653
     12 C12_       -3.4840    1.1060    1.2800 C.3     1  BEN1       -0.0238
     13 C13_       -3.8020    1.0840   -0.2390 C.3     1  BEN1       -0.0219
     14 C14_       -3.5110    2.4390   -0.9380 C.3     1  BEN1        0.1002
     15 C15_       -4.0200    3.5700   -0.0700 C.2     1  BEN1        0.2404
     16 O16_       -5.0660    4.1140   -0.3870 O.2     1  BEN1       -0.2732
     17 C17_       -3.8310    5.0290    1.8640 C.3     1  BEN1        0.0449
     18  H18       -0.9270    5.0260    1.5750 H       1  BEN1        0.0636
     19  H19       -4.2880    1.6290    1.8170 H       1  BEN1        0.0314
     20  H20       -3.4510    0.0770    1.6730 H       1  BEN1        0.0314
     21  H21       -4.8640    0.8250   -0.3790 H       1  BEN1        0.0291
     22 N22_       -4.1720    2.4370   -2.2420 N.am    1  BEN1       -0.3039
     23  H23       -3.1960    0.3050   -0.7290 H       1  BEN1        0.0291
     24  C1        -7.4800    4.3150    2.8190 C.ar    2  BEN2       -0.0537
     25  C2        -7.3150    3.2720    3.7350 C.ar    2  BEN2       -0.0170
     26  C3        -6.0310    2.9100    4.1520 C.ar    2  BEN2       -0.0537
     27  C4        -4.9140    3.5250    3.5820 C.ar    2  BEN2       -0.0565
     28  C5        -5.0750    4.4830    2.5750 C.ar    2  BEN2       -0.0297
     29  C6        -6.3620    4.9120    2.2320 C.ar    2  BEN2       -0.0565
     30  H30       -2.4270    2.5910   -1.0750 H       1  BEN1        0.0595
     31  H31       -4.0720    5.9080    1.2450 H       1  BEN1        0.0518
     32  H32       -3.1150    5.3510    2.6350 H       1  BEN1        0.0518
     33  H33       -5.0550    2.9010   -2.3250 H       1  BEN1        0.1494
     34  H34       -8.4760    4.6570    2.5580 H       2  BEN2        0.0624
     35  H35       -5.9000    2.1470    4.9140 H       2  BEN2        0.0624
     36  C1        -9.4580    3.2320    4.9890 C.ar    3  BEN3       -0.0532
     37  C2        -8.4890    2.5360    4.2600 C.ar    3  BEN3       -0.0026
     38  C3        -8.6230    1.1580    4.0450 C.ar    3  BEN3        0.0787
     39  C4        -9.6850    0.4740    4.6480 C.ar    3  BEN3       -0.0459
     40  C5       -10.6390    1.1640    5.4020 C.ar    3  BEN3       -0.0609
     41  C6       -10.5350    2.5480    5.5590 C.ar    3  BEN3       -0.0611
     42  H42       -3.9190    3.2490    3.9180 H       2  BEN2        0.0621
     43  H43       -6.4980    5.7070    1.5050 H       2  BEN2        0.0621
     44  H44       -9.3730    4.3070    5.1210 H       3  BEN3        0.0624
     45  H45       -9.7750   -0.6010    4.5290 H       3  BEN3        0.0626
     46  N1        -7.0630    0.8340    2.1240 N.ar    4  TET4       -0.0576
     47  N2        -6.3030   -0.1720    1.6500 N.ar    4  TET4        0.1370
     48  N3        -6.4720   -1.2160    2.4780 N.ar    4  TET4        0.0227
     49  N4        -7.3830   -0.8340    3.4960 N.ar    4  TET4       -0.0564
     50  C1        -7.6520    0.3700    3.1890 C.ar    4  TET4        0.3568
     51  H51      -11.4610    0.6250    5.8630 H       3  BEN3        0.0618
     52  H52      -11.2880    3.0900    6.1240 H       3  BEN3        0.0618
     53 C53_       -3.6110    1.7740   -3.2740 C.2     1  BEN1        0.2154
     54 O54_       -2.5520    1.1810   -3.1460 O.2     1  BEN1       -0.2757
     55 C55_       -4.2870    1.7560   -4.6230 C.3     1  BEN1        0.0417
     56 C56_       -5.7130    1.1330   -4.5270 C.3     1  BEN1        0.0223
     57  H57       -7.1690    1.7630    1.6990 H       4  TET4        0.4932
     58  H58       -3.6770    1.1490   -5.3100 H       1  BEN1        0.0376
     59 C59_       -5.5970   -0.3030   -3.9340 C.3     1  BEN1       -0.0466
     60 N60_       -6.5760    1.9510   -3.6310 N.3     1  BEN1       -0.3012
     61 C61_       -6.3420    1.0440   -5.9460 C.3     1  BEN1       -0.0466
     62  H62       -4.2910    2.7780   -5.0210 H       1  BEN1        0.0376
     63  C63       -7.0320    3.2990   -4.0630 C.3     1  BEN1        0.0948
     64  H64       -6.5730   -0.8120   -3.9490 H       1  BEN1        0.0247
     65  H65       -5.2510   -0.2640   -2.8900 H       1  BEN1        0.0247
     66  H66       -4.8870   -0.9130   -4.5130 H       1  BEN1        0.0247
     67  H67       -7.4210    1.3810   -3.2610 H       1  BEN1        0.1230
     68  H68       -6.3490    2.0270   -6.4390 H       1  BEN1        0.0247
     69  H69       -7.3780    0.6790   -5.8780 H       1  BEN1        0.0247
     70  H70       -5.7700    0.3500   -6.5810 H       1  BEN1        0.0247
     71  H71       -7.8530    3.2150   -4.7920 H       1  BEN1        0.0540
     72  C72       -7.5590    4.0980   -2.9020 C.2     1  BEN1        0.3211
     73  O73       -8.3640    3.4310   -2.0630 O.3     1  BEN1       -0.4640
     74  H74       -6.2290    3.8900   -4.5220 H       1  BEN1        0.0540
     75  C75       -8.8220    4.2300   -0.9540 C.3     1  BEN1        0.0897
     76  H76       -9.3700    5.1200   -1.3110 H       1  BEN1        0.0694
     77  H77       -7.9660    4.5570   -0.3410 H       1  BEN1        0.0694
     78  C78       -9.7770    3.3680   -0.0950 C.3     1  BEN1       -0.0306
     79  H79      -10.1680    3.9500    0.7530 H       1  BEN1        0.0262
     80  H80       -9.2440    2.4860    0.2910 H       1  BEN1        0.0262
     81  H81      -10.6240    3.0270   -0.7100 H       1  BEN1        0.0262
@<TRIPOS>BOND
     1     1     2   ar
     2     1     6   ar
     3     1     8    1
     4     2     3   ar
     5     2     9    1
     6     3     4   ar
     7     3    10    1
     8     4     5   ar
     9     4    18    1
    10     5     6   ar
    11     5    11    1
    12     6    12    1
    13     7    72    2
    14    11    15   am
    15    11    17    1
    16    12    13    1
    17    12    19    1
    18    12    20    1
    19    13    14    1
    20    13    21    1
    21    13    23    1
    22    14    15    1
    23    14    22    1
    24    14    30    1
    25    15    16    2
    26    17    31    1
    27    17    28    1
    28    17    32    1
    29    22    33    1
    30    22    53   am
    31    24    25   ar
    32    24    29   ar
    33    24    34    1
    34    25    26   ar
    35    25    37    1
    36    26    27   ar
    37    26    35    1
    38    27    28   ar
    39    27    42    1
    40    28    29   ar
    41    29    43    1
    42    36    37   ar
    43    36    41   ar
    44    36    44    1
    45    37    38   ar
    46    38    39   ar
    47    38    50    1
    48    39    40   ar
    49    39    45    1
    50    40    41   ar
    51    40    51    1
    52    41    52    1
    53    46    47   ar
    54    46    50   ar
    55    46    57    1
    56    47    48   ar
    57    48    49   ar
    58    49    50   ar
    59    53    54    2
    60    53    55    1
    61    55    56    1
    62    55    58    1
    63    55    62    1
    64    56    59    1
    65    56    60    1
    66    56    61    1
    67    59    64    1
    68    59    65    1
    69    59    66    1
    70    60    63    1
    71    60    67    1
    72    61    68    1
    73    61    69    1
    74    61    70    1
    75    63    71    1
    76    63    72    1
    77    63    74    1
    78    72    73    1
    79    73    75    1
    80    75    76    1
    81    75    77    1
    82    75    78    1
    83    78    79    1
    84    78    80    1
    85    78    81    1
