@<TRIPOS>MOLECULE
GHSM.3.pdb
 63 67 0 0 0
SMALL
GASTEIGER

@<TRIPOS>ATOM
      1  C1        -0.9680    1.1740    1.9000 C.ar    1  BEN1       -0.0568
      2  C2         0.1920    1.8910    2.2070 C.ar    1  BEN1       -0.0614
      3  C3         0.1950    3.2850    2.1160 C.ar    1  BEN1       -0.0600
      4  C4        -0.9590    3.9600    1.7100 C.ar    1  BEN1       -0.0400
      5  C5        -2.1280    3.2470    1.4240 C.ar    1  BEN1        0.0398
      6  C6        -2.1340    1.8500    1.5220 C.ar    1  BEN1       -0.0259
      7 H7__       -0.9570    0.0900    1.9580 H       1  BEN1        0.0621
      8 H8__        1.0900    1.3640    2.5150 H       1  BEN1        0.0618
      9 H9__        1.0950    3.8420    2.3590 H       1  BEN1        0.0618
     10 H10_       -0.9390    5.0400    1.6090 H       1  BEN1        0.0636
     11 N11_       -3.3090    3.9360    1.0260 N.am    1  BEN1       -0.2653
     12 C12_       -3.4250    1.0820    1.2160 C.3     1  BEN1       -0.0238
     13 C13_       -3.6920    1.0720   -0.3120 C.3     1  BEN1       -0.0219
     14 C14_       -3.4760    2.4630   -0.9670 C.3     1  BEN1        0.1002
     15 C15_       -4.0010    3.5710   -0.0810 C.2     1  BEN1        0.2404
     16 O16_       -5.0470    4.1140   -0.4010 O.2     1  BEN1       -0.2732
     17 C17_       -3.8360    5.0130    1.8630 C.3     1  BEN1        0.0449
     18 H18_       -4.2540    1.5810    1.7400 H       1  BEN1        0.0314
     19 H19_       -3.3810    0.0480    1.5960 H       1  BEN1        0.0314
     20 H20_       -4.7320    0.7490   -0.4820 H       1  BEN1        0.0291
     21 H21_       -3.0260    0.3450   -0.8050 H       1  BEN1        0.0291
     22 N22_       -4.1440    2.4760   -2.2670 N.am    1  BEN1       -0.3027
     23 H23_       -2.4000    2.6600   -1.1060 H       1  BEN1        0.0595
     24  C1        -7.4870    4.2880    2.7970 C.ar    2  BEN2       -0.0537
     25  C2        -7.3230    3.2620    3.7320 C.ar    2  BEN2       -0.0170
     26  C3        -6.0410    2.8990    4.1530 C.ar    2  BEN2       -0.0537
     27  C4        -4.9210    3.5010    3.5730 C.ar    2  BEN2       -0.0565
     28  C5        -5.0790    4.4580    2.5650 C.ar    2  BEN2       -0.0297
     29  C6        -6.3650    4.8790    2.2090 C.ar    2  BEN2       -0.0565
     30 H30_       -4.0740    5.8940    1.2470 H       1  BEN1        0.0518
     31 H31_       -3.1280    5.3350    2.6430 H       1  BEN1        0.0518
     32 H32_       -5.0580    2.8850   -2.3330 H       1  BEN1        0.1495
     33 H33_       -8.4830    4.6200    2.5200 H       2  BEN2        0.0624
     34 H34_       -5.9130    2.1470    4.9250 H       2  BEN2        0.0624
     35 H35_       -3.9270    3.2150    3.9030 H       2  BEN2        0.0621
     36  C1        -9.4670    3.2510    4.9900 C.ar    3  BEN3       -0.0532
     37  C2        -8.5000    2.5410    4.2710 C.ar    3  BEN3       -0.0026
     38  C3        -8.6360    1.1600    4.0760 C.ar    3  BEN3        0.0787
     39  C4        -9.6930    0.4860    4.6970 C.ar    3  BEN3       -0.0459
     40  C5       -10.6450    1.1890    5.4410 C.ar    3  BEN3       -0.0609
     41  C6       -10.5430    2.5760    5.5730 C.ar    3  BEN3       -0.0611
     42 H42_       -6.5010    5.6620    1.4690 H       2  BEN2        0.0621
     43 H43_       -9.3800    4.3270    5.1030 H       3  BEN3        0.0624
     44 H44_       -9.7810   -0.5920    4.6000 H       3  BEN3        0.0626
     45 H45_      -11.4660    0.6580    5.9150 H       3  BEN3        0.0618
     46  N1        -7.0990    0.8240    2.1400 N.ar    4  TET4       -0.0576
     47  N2        -6.3300   -0.1770    1.6700 N.ar    4  TET4        0.1370
     48  N3        -6.4820   -1.2140    2.5110 N.ar    4  TET4        0.0227
     49  N4        -7.3860   -0.8300    3.5350 N.ar    4  TET4       -0.0564
     50  C1        -7.6710    0.3670    3.2170 C.ar    4  TET4        0.3568
     51 H51_      -11.2950    3.1280    6.1290 H       3  BEN3        0.0618
     52 H52_       -7.2240    1.7450    1.7030 H       4  TET4        0.4932
     53 C53_       -3.5500    1.9160   -3.3410 C.2     1  BEN1        0.2302
     54 O54_       -2.4400    1.4130   -3.2810 O.2     1  BEN1       -0.2741
     55 C55_       -4.2970    1.9180   -4.6550 C.3     1  BEN1        0.0794
     56 H56_       -3.5620    1.9060   -5.4790 H       1  BEN1        0.0551
     57 C57_       -5.1710    0.6400   -4.7170 C.3     1  BEN1       -0.0414
     58 N58_       -5.1610    3.1180   -4.7470 N.3     1  BEN1       -0.3202
     59 H59_       -5.9100    0.6500   -3.9020 H       1  BEN1        0.0249
     60 H60_       -4.5400   -0.2580   -4.6150 H       1  BEN1        0.0249
     61 H61_       -5.7040    0.5850   -5.6780 H       1  BEN1        0.0249
     62 H62_       -5.7180    3.1210   -5.6750 H       1  BEN1        0.1189
     63 H63_       -4.5660    4.0210   -4.6860 H       1  BEN1        0.1189
@<TRIPOS>BOND
     1     1     2   ar
     2     1     6   ar
     3     1     7    1
     4     2     8    1
     5     2     3   ar
     6     3     4   ar
     7     3     9    1
     8     4     5   ar
     9     4    10    1
    10     5     6   ar
    11     5    11    1
    12     6    12    1
    13    11    15   am
    14    11    17    1
    15    12    13    1
    16    12    18    1
    17    12    19    1
    18    13    14    1
    19    13    20    1
    20    13    21    1
    21    14    15    1
    22    14    22    1
    23    14    23    1
    24    15    16    2
    25    17    30    1
    26    17    31    1
    27    17    28    1
    28    22    32    1
    29    22    53   am
    30    24    25   ar
    31    24    29   ar
    32    24    33    1
    33    25    26   ar
    34    25    37    1
    35    26    27   ar
    36    26    34    1
    37    27    28   ar
    38    27    35    1
    39    28    29   ar
    40    29    42    1
    41    36    37   ar
    42    36    41   ar
    43    36    43    1
    44    37    38   ar
    45    38    39   ar
    46    38    50    1
    47    39    40   ar
    48    39    44    1
    49    40    41   ar
    50    40    45    1
    51    41    51    1
    52    46    47   ar
    53    46    50   ar
    54    46    52    1
    55    47    48   ar
    56    48    49   ar
    57    49    50   ar
    58    53    54    2
    59    53    55    1
    60    55    56    1
    61    55    57    1
    62    55    58    1
    63    57    59    1
    64    57    60    1
    65    57    61    1
    66    58    62    1
    67    58    63    1
