@<TRIPOS>MOLECULE
GHSM.21.pdb
 85 89 0 0 0
SMALL
GASTEIGER

@<TRIPOS>ATOM
      1  C1        -1.0160    1.1670    1.9400 C.ar    1  BEN1       -0.0568
      2  C2         0.1550    1.8710    2.2350 C.ar    1  BEN1       -0.0614
      3  C3         0.1800    3.2630    2.1230 C.ar    1  BEN1       -0.0600
      4  C4        -0.9640    3.9490    1.7050 C.ar    1  BEN1       -0.0400
      5  C5        -2.1430    3.2500    1.4300 C.ar    1  BEN1        0.0398
      6  C6        -2.1710    1.8550    1.5510 C.ar    1  BEN1       -0.0259
      7 H7__       -1.0210    0.0850    2.0150 H       1  BEN1        0.0621
      8 H8__        1.0450    1.3350    2.5510 H       1  BEN1        0.0618
      9 H9__        1.0880    3.8110    2.3570 H       1  BEN1        0.0618
     10 H10_       -0.9280    5.0270    1.5870 H       1  BEN1        0.0636
     11 N11_       -3.3120    3.9540    1.0240 N.am    1  BEN1       -0.2653
     12 C12_       -3.4730    1.0980    1.2600 C.3     1  BEN1       -0.0238
     13 C13_       -3.7430    1.0670   -0.2660 C.3     1  BEN1       -0.0219
     14 C14_       -3.5040    2.4450   -0.9370 C.3     1  BEN1        0.1002
     15 C15_       -4.0150    3.5820   -0.0760 C.2     1  BEN1        0.2404
     16 O16_       -5.0490    4.1430   -0.4090 O.2     1  BEN1       -0.2732
     17 C17_       -3.8300    5.0310    1.8660 C.3     1  BEN1        0.0449
     18 H18_       -4.2970    1.6170    1.7730 H       1  BEN1        0.0314
     19 H19_       -3.4430    0.0710    1.6580 H       1  BEN1        0.0314
     20 H20_       -4.7890    0.7610   -0.4320 H       1  BEN1        0.0291
     21 H21_       -3.0910    0.3200   -0.7480 H       1  BEN1        0.0291
     22 N22_       -4.1630    2.4510   -2.2390 N.am    1  BEN1       -0.3039
     23 H23_       -2.4250    2.6200   -1.0810 H       1  BEN1        0.0595
     24  C1        -7.4830    4.3000    2.7960 C.ar    2  BEN2       -0.0537
     25  C2        -7.3160    3.2660    3.7230 C.ar    2  BEN2       -0.0170
     26  C3        -6.0320    2.9040    4.1390 C.ar    2  BEN2       -0.0537
     27  C4        -4.9150    3.5160    3.5670 C.ar    2  BEN2       -0.0565
     28  C5        -5.0760    4.4800    2.5660 C.ar    2  BEN2       -0.0297
     29  C6        -6.3630    4.9080    2.2210 C.ar    2  BEN2       -0.0565
     30 H30_       -4.0670    5.9140    1.2510 H       1  BEN1        0.0518
     31 H31_       -3.1180    5.3490    2.6430 H       1  BEN1        0.0518
     32 H32_       -5.0620    2.8800   -2.2990 H       1  BEN1        0.1494
     33 H33_       -8.4800    4.6250    2.5180 H       2  BEN2        0.0624
     34 H34_       -5.9010    2.1430    4.9030 H       2  BEN2        0.0624
     35 H35_       -3.9200    3.2330    3.8970 H       2  BEN2        0.0621
     36  C1        -9.4480    3.2360    4.9980 C.ar    3  BEN3       -0.0532
     37  C2        -8.4850    2.5350    4.2660 C.ar    3  BEN3       -0.0026
     38  C3        -8.6160    1.1550    4.0670 C.ar    3  BEN3        0.0787
     39  C4        -9.6590    0.4710    4.7030 C.ar    3  BEN3       -0.0459
     40  C5       -10.6040    1.1640    5.4650 C.ar    3  BEN3       -0.0609
     41  C6       -10.5100    2.5520    5.5970 C.ar    3  BEN3       -0.0611
     42 H42_       -6.4960    5.7110    1.5040 H       2  BEN2        0.0621
     43 H43_       -9.3690    4.3130    5.1090 H       3  BEN3        0.0624
     44 H44_       -9.7410   -0.6070    4.6030 H       3  BEN3        0.0626
     45 H45_      -11.4110    0.6260    5.9520 H       3  BEN3        0.0618
     46  N1        -7.1070    0.8330    2.1090 N.ar    4  TET4       -0.0576
     47  N2        -6.3440   -0.1650    1.6210 N.ar    4  TET4        0.1370
     48  N3        -6.4790   -1.2060    2.4600 N.ar    4  TET4        0.0227
     49  N4        -7.3690   -0.8290    3.4990 N.ar    4  TET4       -0.0564
     50  C1        -7.6610    0.3690    3.1920 C.ar    4  TET4        0.3568
     51 H51_      -11.2580    3.0970    6.1650 H       3  BEN3        0.0618
     52 H52_       -7.2400    1.7570    1.6800 H       4  TET4        0.4932
     53 C53_       -3.5980    1.8410   -3.3000 C.2     1  BEN1        0.2154
     54 O54_       -2.5220    1.2730   -3.2230 O.2     1  BEN1       -0.2757
     55 C55_       -4.3370    1.8790   -4.6130 C.3     1  BEN1        0.0417
     56 C56_       -5.7510    1.2290   -4.5270 C.3     1  BEN1        0.0218
     57 H57_       -3.7370    1.3340   -5.3590 H       1  BEN1        0.0376
     58 H58_       -4.3900    2.9230   -4.9490 H       1  BEN1        0.0376
     59 C59_       -5.5890   -0.2380   -4.0240 C.3     1  BEN1       -0.0466
     60 N60_       -6.6140    1.9680   -3.5640 N.3     1  BEN1       -0.3105
     61 C61_       -6.4040    1.2100   -5.9380 C.3     1  BEN1       -0.0466
     62 H62_       -7.4420    1.3420   -3.2510 H       1  BEN1        0.1224
     63  C63       -7.1240    3.3290   -3.8610 C.3     1  BEN1       -0.0010
     64 H64_       -4.8750   -0.7940   -4.6510 H       1  BEN1        0.0247
     65 H65_       -6.5510   -0.7710   -4.0510 H       1  BEN1        0.0247
     66 H66_       -5.2230   -0.2480   -2.9860 H       1  BEN1        0.0247
     67 H67_       -6.4200    2.2170   -6.3790 H       1  BEN1        0.0247
     68 H68_       -7.4380    0.8390   -5.8720 H       1  BEN1        0.0247
     69 H69_       -5.8400    0.5520   -6.6180 H       1  BEN1        0.0247
     70  H70       -7.8010    3.3380   -4.7300 H       1  BEN1        0.0425
     71  H71       -6.2730    3.9870   -4.0850 H       1  BEN1        0.0425
     72  C72       -7.8740    3.8680   -2.6070 C.3     1  BEN1       -0.0119
     73  C73       -7.7470    5.4080   -2.4130 C.3     1  BEN1        0.0617
     74  H74       -7.4510    3.3900   -1.7090 H       1  BEN1        0.0305
     75  H75       -8.9350    3.5740   -2.6620 H       1  BEN1        0.0305
     76  O76       -6.3620    5.7630   -2.2370 O.3     1  BEN1       -0.3891
     77  C77       -8.5480    5.8520   -1.1570 C.3     1  BEN1       -0.0363
     78  C78       -8.2750    6.1770   -3.6550 C.3     1  BEN1       -0.0363
     79  H79       -5.9470    5.3270   -1.4930 H       1  BEN1        0.2101
     80  H80       -8.3900    6.9250   -0.9680 H       1  BEN1        0.0257
     81  H81       -8.2180    5.2920   -0.2700 H       1  BEN1        0.0257
     82  H82       -9.6240    5.6730   -1.2980 H       1  BEN1        0.0257
     83  H83       -8.2200    7.2620   -3.4760 H       1  BEN1        0.0257
     84  H84       -9.3220    5.9060   -3.8620 H       1  BEN1        0.0257
     85  H85       -7.6720    5.9550   -4.5470 H       1  BEN1        0.0257
@<TRIPOS>BOND
     1     1     2   ar
     2     1     6   ar
     3     1     7    1
     4     2     8    1
     5     2     3   ar
     6     3     4   ar
     7     3     9    1
     8     4     5   ar
     9     4    10    1
    10     5     6   ar
    11     5    11    1
    12     6    12    1
    13    11    15   am
    14    11    17    1
    15    12    13    1
    16    12    18    1
    17    12    19    1
    18    13    14    1
    19    13    20    1
    20    13    21    1
    21    14    15    1
    22    14    22    1
    23    14    23    1
    24    15    16    2
    25    17    30    1
    26    17    31    1
    27    17    28    1
    28    22    32    1
    29    22    53   am
    30    24    25   ar
    31    24    29   ar
    32    24    33    1
    33    25    26   ar
    34    25    37    1
    35    26    27   ar
    36    26    34    1
    37    27    28   ar
    38    27    35    1
    39    28    29   ar
    40    29    42    1
    41    36    37   ar
    42    36    41   ar
    43    36    43    1
    44    37    38   ar
    45    38    39   ar
    46    38    50    1
    47    39    40   ar
    48    39    44    1
    49    40    41   ar
    50    40    45    1
    51    41    51    1
    52    46    47   ar
    53    46    50   ar
    54    46    52    1
    55    47    48   ar
    56    48    49   ar
    57    49    50   ar
    58    53    54    2
    59    53    55    1
    60    55    56    1
    61    55    57    1
    62    55    58    1
    63    56    59    1
    64    56    60    1
    65    56    61    1
    66    59    64    1
    67    59    65    1
    68    59    66    1
    69    60    62    1
    70    60    63    1
    71    61    67    1
    72    61    68    1
    73    61    69    1
    74    63    70    1
    75    63    71    1
    76    63    72    1
    77    72    73    1
    78    72    74    1
    79    72    75    1
    80    73    76    1
    81    73    77    1
    82    73    78    1
    83    76    79    1
    84    77    80    1
    85    77    81    1
    86    77    82    1
    87    78    83    1
    88    78    84    1
    89    78    85    1
