@<TRIPOS>MOLECULE
GHSM.15.pdb
 77 81 0 0 0
SMALL
GASTEIGER

@<TRIPOS>ATOM
      1  C1        -0.9860    1.1690    1.8950 C.ar    1  BEN1       -0.0568
      2  C2         0.1870    1.8740    2.1780 C.ar    1  BEN1       -0.0614
      3  C3         0.2030    3.2680    2.0860 C.ar    1  BEN1       -0.0600
      4  C4        -0.9500    3.9540    1.6950 C.ar    1  BEN1       -0.0400
      5  C5        -2.1290    3.2520    1.4250 C.ar    1  BEN1        0.0398
      6  C6        -2.1510    1.8560    1.5360 C.ar    1  BEN1       -0.0259
      7  H7        -0.9850    0.0850    1.9560 H       1  BEN1        0.0621
      8  H8         1.0860    1.3390    2.4700 H       1  BEN1        0.0618
      9  H9         1.1120    3.8170    2.3140 H       1  BEN1        0.0618
     10  H10       -0.9220    5.0340    1.5930 H       1  BEN1        0.0636
     11 N11_       -3.3040    3.9500    1.0290 N.am    1  BEN1       -0.2653
     12 C12_       -3.4600    1.1030    1.2680 C.3     1  BEN1       -0.0238
     13 C13_       -3.7740    1.0830   -0.2510 C.3     1  BEN1       -0.0219
     14 C14_       -3.5090    2.4480   -0.9400 C.3     1  BEN1        0.1002
     15 C15_       -4.0090    3.5780   -0.0680 C.2     1  BEN1        0.2404
     16 O16_       -5.0490    4.1320   -0.3880 O.2     1  BEN1       -0.2732
     17 C17_       -3.8250    5.0290    1.8690 C.3     1  BEN1        0.0449
     18  H18       -4.2680    1.6190    1.8060 H       1  BEN1        0.0314
     19  H19       -3.4210    0.0730    1.6580 H       1  BEN1        0.0314
     20  H20       -4.8320    0.8060   -0.3910 H       1  BEN1        0.0291
     21  H21       -3.1560    0.3160   -0.7470 H       1  BEN1        0.0291
     22 N22_       -4.1850    2.4530   -2.2360 N.am    1  BEN1       -0.3039
     23  H23       -2.4270    2.6090   -1.0890 H       1  BEN1        0.0595
     24  C1        -7.4780    4.2980    2.7960 C.ar    2  BEN2       -0.0537
     25  C2        -7.3140    3.2660    3.7240 C.ar    2  BEN2       -0.0170
     26  C3        -6.0320    2.9050    4.1460 C.ar    2  BEN2       -0.0537
     27  C4        -4.9130    3.5170    3.5750 C.ar    2  BEN2       -0.0565
     28  C5        -5.0700    4.4780    2.5710 C.ar    2  BEN2       -0.0297
     29  C6        -6.3570    4.9000    2.2160 C.ar    2  BEN2       -0.0565
     30  H30       -4.0610    5.9120    1.2530 H       1  BEN1        0.0518
     31  H31       -3.1130    5.3470    2.6460 H       1  BEN1        0.0518
     32  H32       -5.0770    2.9000   -2.3040 H       1  BEN1        0.1494
     33  H33       -8.4740    4.6270    2.5170 H       2  BEN2        0.0624
     34  H34       -5.9030    2.1470    4.9120 H       2  BEN2        0.0624
     35  H35       -3.9190    3.2360    3.9100 H       2  BEN2        0.0621
     36  C1        -9.4590    3.2430    4.9770 C.ar    3  BEN3       -0.0532
     37  C2        -8.4900    2.5380    4.2560 C.ar    3  BEN3       -0.0026
     38  C3        -8.6260    1.1580    4.0550 C.ar    3  BEN3        0.0787
     39  C4        -9.6860    0.4810    4.6670 C.ar    3  BEN3       -0.0459
     40  C5       -10.6410    1.1800    5.4110 C.ar    3  BEN3       -0.0609
     41  C6       -10.5370    2.5660    5.5520 C.ar    3  BEN3       -0.0611
     42  H42       -6.4930    5.6890    1.4840 H       2  BEN2        0.0621
     43  H43       -9.3710    4.3190    5.0980 H       3  BEN3        0.0624
     44  H44       -9.7760   -0.5960    4.5620 H       3  BEN3        0.0626
     45  H45      -11.4650    0.6470    5.8770 H       3  BEN3        0.0618
     46  N1        -7.0770    0.8240    2.1280 N.ar    4  TET4       -0.0576
     47  N2        -6.3110   -0.1810    1.6590 N.ar    4  TET4        0.1370
     48  N3        -6.4720   -1.2200    2.4950 N.ar    4  TET4        0.0227
     49  N4        -7.3810   -0.8350    3.5150 N.ar    4  TET4       -0.0564
     50  C1        -7.6580    0.3650    3.2000 C.ar    4  TET4        0.3568
     51  H51      -11.2900    3.1150    6.1100 H       3  BEN3        0.0618
     52  H52       -7.1940    1.7470    1.6940 H       4  TET4        0.4932
     53 C53_       -3.6350    1.8100   -3.2850 C.2     1  BEN1        0.2154
     54 O54_       -2.5680    1.2260   -3.1830 O.2     1  BEN1       -0.2757
     55 C55_       -4.3390    1.8090   -4.6190 C.3     1  BEN1        0.0417
     56 C56_       -5.7610    1.1770   -4.5260 C.3     1  BEN1        0.0218
     57  H57       -3.7320    1.2280   -5.3310 H       1  BEN1        0.0376
     58  H58       -4.3710    2.8410   -4.9930 H       1  BEN1        0.0376
     59 C59_       -5.6210   -0.2670   -3.9540 C.3     1  BEN1       -0.0466
     60 N60_       -6.6380    1.9570   -3.6080 N.3     1  BEN1       -0.3094
     61 C61_       -6.3830    1.0910   -5.9500 C.3     1  BEN1       -0.0466
     62  H62       -6.5870   -0.7950   -3.9820 H       1  BEN1        0.0247
     63  C63       -7.1110    3.3070   -4.0130 C.3     1  BEN1        0.0087
     64  H64       -5.2830   -0.2350   -2.9070 H       1  BEN1        0.0247
     65  H65       -4.8960   -0.8570   -4.5350 H       1  BEN1        0.0247
     66  H66       -7.4850    1.3580   -3.2950 H       1  BEN1        0.1225
     67  H67       -6.3720    2.0710   -6.4470 H       1  BEN1        0.0247
     68  H68       -7.4230    0.7380   -5.8880 H       1  BEN1        0.0247
     69  H69       -5.8150    0.3890   -6.5800 H       1  BEN1        0.0247
     70  H70       -7.7870    3.2410   -4.8810 H       1  BEN1        0.0437
     71  H71       -6.2710    3.9630   -4.2810 H       1  BEN1        0.0437
     72  C72       -7.9030    3.9890   -2.8670 C.3     1  BEN1        0.0057
     73  N73       -8.3910    5.3150   -3.3060 N.3     1  BEN1       -0.3288
     74  H74       -7.2690    4.0840   -1.9690 H       1  BEN1        0.0434
     75  H75       -8.7720    3.3610   -2.6080 H       1  BEN1        0.0434
     76  H76       -7.5620    5.9800   -3.5140 H       1  BEN1        0.1183
     77  H77       -9.0240    5.7610   -2.5490 H       1  BEN1        0.1183
@<TRIPOS>BOND
     1     1     2   ar
     2     1     6   ar
     3     1     7    1
     4     2     8    1
     5     2     3   ar
     6     3     4   ar
     7     3     9    1
     8     4     5   ar
     9     4    10    1
    10     5     6   ar
    11     5    11    1
    12     6    12    1
    13    11    15   am
    14    11    17    1
    15    12    13    1
    16    12    18    1
    17    12    19    1
    18    13    14    1
    19    13    20    1
    20    13    21    1
    21    14    15    1
    22    14    22    1
    23    14    23    1
    24    15    16    2
    25    17    30    1
    26    17    31    1
    27    17    28    1
    28    22    32    1
    29    22    53   am
    30    24    25   ar
    31    24    29   ar
    32    24    33    1
    33    25    26   ar
    34    25    37    1
    35    26    27   ar
    36    26    34    1
    37    27    28   ar
    38    27    35    1
    39    28    29   ar
    40    29    42    1
    41    36    37   ar
    42    36    41   ar
    43    36    43    1
    44    37    38   ar
    45    38    39   ar
    46    38    50    1
    47    39    40   ar
    48    39    44    1
    49    40    41   ar
    50    40    45    1
    51    41    51    1
    52    46    47   ar
    53    46    50   ar
    54    46    52    1
    55    47    48   ar
    56    48    49   ar
    57    49    50   ar
    58    53    54    2
    59    53    55    1
    60    55    56    1
    61    55    57    1
    62    55    58    1
    63    56    59    1
    64    56    60    1
    65    56    61    1
    66    59    62    1
    67    59    64    1
    68    59    65    1
    69    60    63    1
    70    60    66    1
    71    61    67    1
    72    61    68    1
    73    61    69    1
    74    63    70    1
    75    63    71    1
    76    63    72    1
    77    72    73    1
    78    72    74    1
    79    72    75    1
    80    73    76    1
    81    73    77    1
