@<TRIPOS>MOLECULE
14_29
 47 49 0 0 0
SMALL
USER_CHARGES
****
From 3DB ct
@<TRIPOS>ATOM
      1 N          10.1140    2.5850   12.8570 N.ar    1  LIG1       -0.6576
      2 C          10.7430    1.9550   11.8730 C.ar    1  LIG1        0.7990
      3 N          12.0150    2.1610   11.5520 N.ar    1  LIG1       -0.6506
      4 C          12.7080    3.0600   12.2620 C.ar    1  LIG1        0.3453
      5 C          12.1720    3.7970   13.3260 C.ar    1  LIG1       -0.1905
      6 C          10.8140    3.4880   13.5700 C.ar    1  LIG1        0.6016
      7 N          10.0750    4.0900   14.5840 N.pl3   1  LIG1       -0.7489
      8 H          10.4430    3.9000   15.5160 H       1  LIG1        0.3476
      9 H          10.0010    5.1020   14.4800 H       1  LIG1        0.3464
     10 C          13.0310    4.7360   14.0050 C.ar    1  LIG1       -0.3214
     11 C          14.3780    4.9090   13.6270 C.ar    1  LIG1        0.2920
     12 C          14.8590    4.1570   12.5520 C.ar    1  LIG1       -0.1562
     13 H          15.8890    4.2720   12.2130 H       1  LIG1        0.1183
     14 C          14.0300    3.2510   11.8950 C.ar    1  LIG1       -0.1600
     15 H          14.4400    2.6790   11.0630 H       1  LIG1        0.1355
     16 C          15.3220    5.8880   14.2930 C.3     1  LIG1       -0.2205
     17 H          15.8170    5.3880   15.1350 H       1  LIG1        0.0840
     18 H          14.7670    6.7280   14.7260 H       1  LIG1        0.1158
     19 N          16.3160    6.3480   13.3380 N.pl3   1  LIG1       -0.3148
     20 H          17.2830    6.0840   13.5190 H       1  LIG1        0.2691
     21 C          16.0440    7.1220   12.2270 C.ar    1  LIG1        0.2610
     22 C          14.7600    7.6650   12.0860 C.ar    1  LIG1       -0.3882
     23 H          14.0000    7.4700   12.8410 H       1  LIG1        0.1398
     24 C          14.4360    8.4670   10.9910 C.ar    1  LIG1        0.4326
     25 C          15.3760    8.6980    9.9860 C.ar    1  LIG1       -0.2304
     26 C          16.6750    8.1870   10.1090 C.ar    1  LIG1        0.3539
     27 C          16.9930    7.4020   11.2290 C.ar    1  LIG1       -0.4515
     28 H          17.9940    6.9950   11.3350 H       1  LIG1        0.1343
     29 O          17.5430    8.5050    9.0960 O.3     1  LIG1       -0.2312
     30 C          18.8500    7.9380    9.1540 C.3     1  LIG1       -0.0314
     31 H          19.4000    8.2790    8.2710 H       1  LIG1        0.0726
     32 H          18.8080    6.8450    9.1170 H       1  LIG1        0.0555
     33 H          19.3910    8.2870   10.0400 H       1  LIG1        0.0547
     34 O          15.0440    9.4890    8.9120 O.3     1  LIG1       -0.2182
     35 C          16.1680    9.6180    8.0350 C.3     1  LIG1       -0.0430
     36 H          15.8640   10.2490    7.1950 H       1  LIG1        0.0509
     37 H          16.4730    8.6450    7.6340 H       1  LIG1        0.0663
     38 H          17.0110   10.1040    8.5390 H       1  LIG1        0.0584
     39 O          13.1610    8.9600   10.8900 O.3     1  LIG1       -0.3175
     40 C          13.0400    9.7550    9.7050 C.3     1  LIG1        0.0876
     41 H          12.0170   10.1420    9.6660 H       1  LIG1        0.0369
     42 H          13.2110    9.1540    8.8050 H       1  LIG1        0.0328
     43 H          13.7260   10.6090    9.7300 H       1  LIG1        0.0432
     44 CL         12.4180    5.7030   15.3200 Cl      1  LIG1        0.0664
     45 N          10.0430    1.0440   11.1450 N.pl3   1  LIG1       -0.8204
     46 H          10.4970    0.5510   10.3900 H       1  LIG1        0.3789
     47 H           9.0740    0.8670   11.3630 H       1  LIG1        0.3717
@<TRIPOS>BOND
     1     1     2   ar
     2     2     3   ar
     3     3     4   ar
     4     4     5   ar
     5     5     6   ar
     6     6     1   ar
     7     6     7    1
     8     7     8    1
     9     7     9    1
    10     5    10   ar
    11    10    11   ar
    12    11    12   ar
    13    12    13    1
    14    12    14   ar
    15    14    15    1
    16    14     4   ar
    17    11    16    1
    18    16    17    1
    19    16    18    1
    20    16    19    1
    21    19    20    1
    22    19    21    1
    23    21    22   ar
    24    22    23    1
    25    22    24   ar
    26    24    25   ar
    27    25    26   ar
    28    26    27   ar
    29    27    28    1
    30    27    21   ar
    31    26    29    1
    32    29    30    1
    33    30    31    1
    34    30    32    1
    35    30    33    1
    36    25    34    1
    37    34    35    1
    38    35    36    1
    39    35    37    1
    40    35    38    1
    41    24    39    1
    42    39    40    1
    43    40    41    1
    44    40    42    1
    45    40    43    1
    46    10    44    1
    47     2    45    1
    48    45    46    1
    49    45    47    1
