@<TRIPOS>MOLECULE
14_28
 43 45 0 0 0
SMALL
USER_CHARGES
****
From 3DB ct
@<TRIPOS>ATOM
      1 N          10.1130    2.5740   12.8580 N.ar    1  LIG1       -0.6593
      2 C          10.7460    1.9470   11.8750 C.ar    1  LIG1        0.8012
      3 N          12.0170    2.1600   11.5530 N.ar    1  LIG1       -0.6514
      4 C          12.7040    3.0650   12.2610 C.ar    1  LIG1        0.3423
      5 C          12.1630    3.8040   13.3210 C.ar    1  LIG1       -0.1849
      6 C          10.8070    3.4840   13.5680 C.ar    1  LIG1        0.6018
      7 N          10.0630    4.0870   14.5780 N.pl3   1  LIG1       -0.7614
      8 H          10.4420    3.9220   15.5100 H       1  LIG1        0.3522
      9 H           9.9630    5.0940   14.4570 H       1  LIG1        0.3500
     10 C          13.0140    4.7530   13.9960 C.ar    1  LIG1       -0.3248
     11 C          14.3610    4.9340   13.6170 C.ar    1  LIG1        0.2797
     12 C          14.8490    4.1740   12.5500 C.ar    1  LIG1       -0.1554
     13 H          15.8780    4.2940   12.2130 H       1  LIG1        0.1228
     14 C          14.0250    3.2600   11.8950 C.ar    1  LIG1       -0.1599
     15 H          14.4400    2.6860   11.0670 H       1  LIG1        0.1354
     16 C          15.3000    5.9280   14.2710 C.3     1  LIG1       -0.1741
     17 H          15.7770    5.4370   15.1300 H       1  LIG1        0.0724
     18 H          14.7450    6.7820   14.6670 H       1  LIG1        0.1011
     19 N          16.3110    6.3510   13.3160 N.pl3   1  LIG1       -0.2558
     20 H          17.2680    6.0670   13.5220 H       1  LIG1        0.2526
     21 C          16.1000    7.1360   12.1910 C.ar    1  LIG1        0.0281
     22 C          14.8040    7.6690   12.0290 C.ar    1  LIG1       -0.2333
     23 H          14.0410    7.4500   12.7760 H       1  LIG1        0.1221
     24 C          14.4500    8.4710   10.9380 C.ar    1  LIG1        0.3093
     25 C          15.4090    8.7580    9.9770 C.ar    1  LIG1       -0.2934
     26 H          15.1920    9.3760    9.1100 H       1  LIG1        0.1313
     27 C          16.7040    8.2470   10.1080 C.ar    1  LIG1       -0.1247
     28 H          17.4160    8.5030    9.3270 H       1  LIG1        0.1226
     29 C          17.0610    7.4410   11.2000 C.ar    1  LIG1        0.1181
     30 O          18.3220    6.9210   11.3620 O.3     1  LIG1       -0.2788
     31 C          19.3250    7.2810   10.4140 C.3     1  LIG1        0.0069
     32 H          20.2540    6.7870   10.7130 H       1  LIG1        0.0644
     33 H          19.5050    8.3610   10.4200 H       1  LIG1        0.0409
     34 H          19.0660    6.9220    9.4130 H       1  LIG1        0.0419
     35 O          13.1520    8.9010   10.9340 O.3     1  LIG1       -0.3073
     36 C          12.7600    9.7490    9.8550 C.3     1  LIG1        0.0678
     37 H          11.7040    9.9990    9.9940 H       1  LIG1        0.0544
     38 H          12.8570    9.2320    8.8940 H       1  LIG1        0.0278
     39 H          13.3290   10.6840    9.8620 H       1  LIG1        0.0266
     40 CL         12.3890    5.7210   15.3050 Cl      1  LIG1        0.0632
     41 N          10.0520    1.0290   11.1490 N.pl3   1  LIG1       -0.8245
     42 H          10.5040    0.5450   10.3880 H       1  LIG1        0.3799
     43 H           9.0820    0.8510   11.3670 H       1  LIG1        0.3725
@<TRIPOS>BOND
     1     1     2   ar
     2     2     3   ar
     3     3     4   ar
     4     4     5   ar
     5     5     6   ar
     6     6     1   ar
     7     6     7    1
     8     7     8    1
     9     7     9    1
    10     5    10   ar
    11    10    11   ar
    12    11    12   ar
    13    12    13    1
    14    12    14   ar
    15    14    15    1
    16    14     4   ar
    17    11    16    1
    18    16    17    1
    19    16    18    1
    20    16    19    1
    21    19    20    1
    22    19    21    1
    23    21    22   ar
    24    22    23    1
    25    22    24   ar
    26    24    25   ar
    27    25    26    1
    28    25    27   ar
    29    27    28    1
    30    27    29   ar
    31    29    21   ar
    32    29    30    1
    33    30    31    1
    34    31    32    1
    35    31    33    1
    36    31    34    1
    37    24    35    1
    38    35    36    1
    39    36    37    1
    40    36    38    1
    41    36    39    1
    42    10    40    1
    43     2    41    1
    44    41    42    1
    45    41    43    1
