@<TRIPOS>MOLECULE
15_6
 47 49 0 0 0
SMALL
USER_CHARGES
****
From 3DB ct
@<TRIPOS>ATOM
      1 N          10.1780    2.7580   12.8690 N.ar    1  LIG1       -0.6650
      2 C          10.7450    2.0620   11.8850 C.ar    1  LIG1        0.7711
      3 N          12.0270    2.1580   11.5320 N.ar    1  LIG1       -0.6468
      4 C          12.7960    3.0200   12.2090 C.ar    1  LIG1        0.4078
      5 C          12.3120    3.8000   13.2590 C.ar    1  LIG1       -0.3797
      6 C          10.9600    3.6020   13.5600 C.ar    1  LIG1        0.6749
      7 N          10.3150    4.3160   14.5560 N.pl3   1  LIG1       -0.7530
      8 H          10.8170    4.5000   15.4180 H       1  LIG1        0.3352
      9 H           9.3330    4.0880   14.6800 H       1  LIG1        0.3231
     10 C          13.1850    4.7060   13.9230 C.ar    1  LIG1       -0.2137
     11 H          12.7910    5.3200   14.7320 H       1  LIG1        0.1114
     12 C          14.5320    4.8390   13.5690 C.ar    1  LIG1        0.3318
     13 C          14.9880    4.0460   12.5200 C.ar    1  LIG1       -0.1401
     14 H          16.0180    4.0980   12.1780 H       1  LIG1        0.1244
     15 C          14.1300    3.1550   11.8580 C.ar    1  LIG1       -0.2041
     16 H          14.5290    2.5560   11.0400 H       1  LIG1        0.1362
     17 N          15.3180    5.7380   14.2540 N.pl3   1  LIG1       -0.7006
     18 H          15.2330    5.7790   15.2680 H       1  LIG1        0.3467
     19 C          16.3590    6.5820   13.6880 C.3     1  LIG1        0.1967
     20 H          17.2230    5.9550   13.4370 H       1  LIG1        0.0337
     21 H          16.7270    7.3100   14.4200 H       1  LIG1        0.0331
     22 C          15.8860    7.2510   12.4140 C.ar    1  LIG1        0.0380
     23 C          16.8020    7.5460   11.3870 C.ar    1  LIG1       -0.3646
     24 H          17.8430    7.2740   11.5420 H       1  LIG1        0.1666
     25 C          16.3810    8.1670   10.2100 C.ar    1  LIG1        0.3080
     26 C          15.0180    8.4760   10.0590 C.ar    1  LIG1       -0.1001
     27 C          14.0890    8.2130   11.0810 C.ar    1  LIG1        0.2451
     28 C          14.5330    7.5990   12.2540 C.ar    1  LIG1       -0.2231
     29 H          13.8470    7.3810   13.0680 H       1  LIG1        0.1526
     30 O          12.7950    8.5940   10.8340 O.3     1  LIG1       -0.3062
     31 C          12.5340    9.2490    9.5950 C.3     1  LIG1        0.1134
     32 H          11.4750    9.5260    9.5820 H       1  LIG1        0.0292
     33 H          12.7140    8.5760    8.7500 H       1  LIG1        0.0294
     34 H          13.1200   10.1700    9.5040 H       1  LIG1        0.0250
     35 O          14.5940    9.1180    8.9140 O.3     1  LIG1       -0.1975
     36 C          15.6980    9.2860    8.0170 C.3     1  LIG1       -0.0445
     37 H          15.3210    9.7750    7.1140 H       1  LIG1        0.0637
     38 H          16.1250    8.3200    7.7260 H       1  LIG1        0.0565
     39 H          16.4690    9.9280    8.4540 H       1  LIG1        0.0593
     40 O          17.1980    8.5080    9.1630 O.3     1  LIG1       -0.2343
     41 C          18.5830    8.1930    9.2900 C.3     1  LIG1       -0.0577
     42 H          19.0880    8.5480    8.3870 H       1  LIG1        0.0852
     43 H          18.7360    7.1110    9.3540 H       1  LIG1        0.0535
     44 H          19.0270    8.7100   10.1460 H       1  LIG1        0.0587
     45 N           9.9630    1.1920   11.1900 N.pl3   1  LIG1       -0.8263
     46 H          10.3650    0.6450   10.4420 H       1  LIG1        0.3755
     47 H           8.9890    1.0910   11.4330 H       1  LIG1        0.3713
@<TRIPOS>BOND
     1     1     2   ar
     2     2     3   ar
     3     3     4   ar
     4     4     5   ar
     5     5     6   ar
     6     6     1   ar
     7     6     7    1
     8     7     8    1
     9     7     9    1
    10     5    10   ar
    11    10    11    1
    12    10    12   ar
    13    12    13   ar
    14    13    14    1
    15    13    15   ar
    16    15    16    1
    17    15     4   ar
    18    12    17    1
    19    17    18    1
    20    17    19    1
    21    19    20    1
    22    19    21    1
    23    19    22    1
    24    22    23   ar
    25    23    24    1
    26    23    25   ar
    27    25    26   ar
    28    26    27   ar
    29    27    28   ar
    30    28    29    1
    31    28    22   ar
    32    27    30    1
    33    30    31    1
    34    31    32    1
    35    31    33    1
    36    31    34    1
    37    26    35    1
    38    35    36    1
    39    36    37    1
    40    36    38    1
    41    36    39    1
    42    25    40    1
    43    40    41    1
    44    41    42    1
    45    41    43    1
    46    41    44    1
    47     2    45    1
    48    45    46    1
    49    45    47    1
