@<TRIPOS>MOLECULE
16_12
 45 47 0 0 0
SMALL
USER_CHARGES
****
From 3DB ct
@<TRIPOS>ATOM
      1 N          10.4600    2.7830   13.2850 N.ar    1  LIG1       -0.7069
      2 C          10.6640    1.9720   12.2430 C.ar    1  LIG1        0.8249
      3 N          11.7460    1.9610   11.4750 N.ar    1  LIG1       -0.5849
      4 C          12.6700    2.8640   11.8370 C.ar    1  LIG1        0.2389
      5 C          12.5940    3.7600   12.8920 C.ar    1  LIG1       -0.5352
      6 C          11.3990    3.6880   13.6360 C.ar    1  LIG1        0.7813
      7 N          11.0960    4.4770   14.7170 N.pl3   1  LIG1       -0.8033
      8 H          11.7070    5.1970   15.0710 H       1  LIG1        0.3442
      9 H          10.2040    4.3420   15.1790 H       1  LIG1        0.3398
     10 C          13.8030    4.5760   12.9710 C.ar    1  LIG1        0.1694
     11 C          14.6910    4.2350   11.9630 C.ar    1  LIG1       -0.4198
     12 H          15.6650    4.6590   11.7590 H       1  LIG1        0.2598
     13 S          14.1180    2.9830   10.9580 S.2     1  LIG1        0.1703
     14 C          14.0380    5.6460   14.0150 C.3     1  LIG1       -0.0598
     15 H          14.1480    5.1500   14.9880 H       1  LIG1        0.0634
     16 H          13.1350    6.2680   14.0720 H       1  LIG1        0.0267
     17 C          15.2600    6.5440   13.7870 C.3     1  LIG1       -0.1075
     18 H          15.3030    7.3150   14.5700 H       1  LIG1        0.0342
     19 H          16.1940    5.9830   13.9010 H       1  LIG1        0.0200
     20 C          15.2200    7.2260   12.4320 C.ar    1  LIG1        0.5517
     21 C          14.0270    7.5130   11.7420 C.ar    1  LIG1       -0.5309
     22 H          13.0290    7.2530   12.1470 H       1  LIG1        0.1944
     23 C          14.0780    8.1750   10.5050 C.ar    1  LIG1        0.4399
     24 C          15.3150    8.4990    9.9300 C.ar    1  LIG1       -0.1707
     25 C          16.5110    8.2490   10.6150 C.ar    1  LIG1        0.5932
     26 C          16.4520    7.6160   11.8600 C.ar    1  LIG1       -0.8566
     27 BR         18.1220    7.3460   12.8100 Br      1  LIG1        0.1913
     28 O          17.6620    8.6530    9.9910 O.3     1  LIG1       -0.3454
     29 C          18.3000    7.7140    9.1260 C.3     1  LIG1       -0.0015
     30 H          19.1950    8.1930    8.7170 H       1  LIG1        0.0780
     31 H          17.6490    7.4500    8.2860 H       1  LIG1        0.0489
     32 H          18.6190    6.8250    9.6780 H       1  LIG1        0.0353
     33 O          15.3550    9.1230    8.7030 O.3     1  LIG1       -0.2443
     34 C          16.7070    9.4660    8.3770 C.3     1  LIG1        0.0592
     35 H          16.6980    9.9660    7.4040 H       1  LIG1        0.0487
     36 H          17.3340    8.5720    8.2950 H       1  LIG1        0.0426
     37 H          17.1280   10.1610    9.1120 H       1  LIG1        0.0250
     38 O          12.9160    8.4460    9.8180 O.3     1  LIG1       -0.3163
     39 C          13.2190    9.0280    8.5440 C.3     1  LIG1        0.0854
     40 H          12.2800    9.3900    8.1140 H       1  LIG1        0.0429
     41 H          13.6390    8.2840    7.8620 H       1  LIG1        0.0213
     42 H          13.8990    9.8820    8.6420 H       1  LIG1        0.0350
     43 N           9.6770    1.0810   11.9480 N.pl3   1  LIG1       -0.8544
     44 H           9.7930    0.4420   11.1750 H       1  LIG1        0.3848
     45 H           8.8440    1.0530   12.5170 H       1  LIG1        0.3870
@<TRIPOS>BOND
     1     1     2   ar
     2     2     3   ar
     3     3     4   ar
     4     4     5   ar
     5     5     6   ar
     6     6     1   ar
     7     6     7    1
     8     7     8    1
     9     7     9    1
    10     5    10   ar
    11    10    11   ar
    12    11    12    1
    13    11    13   ar
    14    13     4   ar
    15    10    14    1
    16    14    15    1
    17    14    16    1
    18    14    17    1
    19    17    18    1
    20    17    19    1
    21    17    20    1
    22    20    21   ar
    23    21    22    1
    24    21    23   ar
    25    23    24   ar
    26    24    25   ar
    27    25    26   ar
    28    26    20   ar
    29    26    27    1
    30    25    28    1
    31    28    29    1
    32    29    30    1
    33    29    31    1
    34    29    32    1
    35    24    33    1
    36    33    34    1
    37    34    35    1
    38    34    36    1
    39    34    37    1
    40    23    38    1
    41    38    39    1
    42    39    40    1
    43    39    41    1
    44    39    42    1
    45     2    43    1
    46    43    44    1
    47    43    45    1
