@<TRIPOS>MOLECULE
1_235791
 38 40 0 0 0
SMALL
USER_CHARGES
****
From 3DB ct
@<TRIPOS>ATOM
      1 C          12.2000    3.8600   13.2730 C.ar    1  LIG1       -0.2985
      2 C          10.8450    3.4660   13.6300 C.ar    1  LIG1        0.6175
      3 N          10.1440    2.5940   12.8960 N.ar    1  LIG1       -0.6439
      4 C          10.6980    1.9790   11.8240 C.ar    1  LIG1        0.7486
      5 N          12.0400    2.1470   11.5440 N.ar    1  LIG1       -0.6649
      6 C          12.7710    3.0540   12.3160 C.ar    1  LIG1        0.6097
      7 N          14.0870    3.0620   11.9480 N.ar    1  LIG1       -0.4530
      8 C          14.8420    3.9790   12.6210 C.ar    1  LIG1        0.2092
      9 H          15.7750    3.9430   12.4450 H       1  LIG1        0.0883
     10 C          14.3310    4.9350   13.5230 C.ar    1  LIG1        0.0670
     11 N          12.9740    4.8700   13.8600 N.ar    1  LIG1       -0.2175
     12 C          15.2830    5.9410   14.2710 C.3     1  LIG1       -0.0460
     13 H          14.7820    6.6920   14.5650 H       1  LIG1        0.0861
     14 H          15.6790    5.5090   15.0190 H       1  LIG1        0.0811
     15 N          16.3690    6.3880   13.3050 N.pl3   1  LIG1       -0.4815
     16 H          17.2320    6.1730   13.4490 H       1  LIG1        0.3033
     17 C          16.0360    7.0980   12.2490 C.ar    1  LIG1        0.2932
     18 C          14.7390    7.6590   12.0820 C.ar    1  LIG1       -0.1813
     19 H          14.0580    7.4790   12.7190 H       1  LIG1        0.1051
     20 C          14.4550    8.4760   10.9900 C.ar    1  LIG1       -0.0498
     21 H          13.4480    8.9260   10.8660 H       1  LIG1        0.1089
     22 C          15.4170    8.7250   10.0190 C.ar    1  LIG1       -0.2399
     23 C          16.6720    8.2010   10.0950 C.ar    1  LIG1        0.0368
     24 H          17.3870    8.3670    9.2780 H       1  LIG1        0.1149
     25 C          17.0030    7.4330   11.2800 C.ar    1  LIG1       -0.3222
     26 H          17.9040    7.1550   11.3930 H       1  LIG1        0.1285
     27 C          14.9540    9.6510    8.9170 C.2     1  LIG1        0.5119
     28 C          13.5720   10.3040    8.7940 C.3     1  LIG1       -0.2740
     29 H          13.8270   11.3740    8.7030 H       1  LIG1        0.0680
     30 H          13.2450    9.9760    7.7930 H       1  LIG1        0.0786
     31 H          12.7170   10.2190    9.4710 H       1  LIG1        0.0775
     32 O          15.7300    9.9330    8.0140 O.2     1  LIG1       -0.4058
     33 N          10.0000    1.2030   11.0730 N.pl3   1  LIG1       -0.7528
     34 H           9.1310    1.0630   11.2570 H       1  LIG1        0.3584
     35 H          10.3810    0.8010   10.3640 H       1  LIG1        0.3692
     36 N          10.1820    3.9600   14.7110 N.pl3   1  LIG1       -0.7229
     37 H          10.5820    4.5620   15.2480 H       1  LIG1        0.3435
     38 H           9.3440    3.6840   14.8900 H       1  LIG1        0.3487
@<TRIPOS>BOND
     1     1     2   ar
     2     2     3   ar
     3     3     4   ar
     4     4     5   ar
     5     5     6   ar
     6     6     1   ar
     7     6     7   ar
     8     7     8   ar
     9     8     9    1
    10     8    10   ar
    11    10    11   ar
    12    11     1   ar
    13    10    12    1
    14    12    13    1
    15    12    14    1
    16    12    15    1
    17    15    16    1
    18    15    17    1
    19    17    18   ar
    20    18    19    1
    21    18    20   ar
    22    20    21    1
    23    20    22   ar
    24    22    23   ar
    25    23    24    1
    26    23    25   ar
    27    25    26    1
    28    25    17   ar
    29    22    27    1
    30    27    28    1
    31    28    29    1
    32    28    30    1
    33    28    31    1
    34    27    32    2
    35     4    33    1
    36    33    34    1
    37    33    35    1
    38     2    36    1
    39    36    37    1
    40    36    38    1
