@<TRIPOS>MOLECULE
20_5f
 41 43 0 0 0
SMALL
USER_CHARGES
****
From 3DB ct
@<TRIPOS>ATOM
      1 C          12.4010    3.9580   12.9870 C.ar    1  LIG1       -0.5759
      2 C          11.0840    3.7940   13.5830 C.ar    1  LIG1        0.7562
      3 N          10.2390    2.8370   13.1810 N.ar    1  LIG1       -0.7166
      4 C          10.6060    1.9280   12.2470 C.ar    1  LIG1        0.8166
      5 N          11.9070    1.8940   11.7840 N.ar    1  LIG1       -0.6747
      6 C          12.7880    2.8900   12.2110 C.ar    1  LIG1        0.4339
      7 C          14.2250    2.6740   11.7630 C.3     1  LIG1       -0.0064
      8 H          14.4410    1.5930   11.7640 H       1  LIG1        0.0434
      9 H          14.3500    3.0120   10.7190 H       1  LIG1        0.0244
     10 C          15.1710    3.4520   12.6860 C.3     1  LIG1       -0.1772
     11 H          16.2010    3.3980   12.2950 H       1  LIG1        0.0363
     12 H          15.1910    3.0050   13.6960 H       1  LIG1        0.0686
     13 C          14.6660    4.9120   12.7410 C.3     1  LIG1        0.2717
     14 H          14.3610    5.1120   11.6990 H       1  LIG1        0.0112
     15 C          13.3340    5.0670   13.5180 C.3     1  LIG1       -0.0631
     16 H          13.5070    4.8860   14.5950 H       1  LIG1        0.0661
     17 H          12.9560    5.9270   13.3740 H       1  LIG1        0.0303
     18 C          15.7500    5.9080   13.1780 C.3     1  LIG1       -0.4734
     19 H          15.5670    6.3650   14.1650 H       1  LIG1        0.1199
     20 H          16.7850    5.5610   13.3140 H       1  LIG1        0.1234
     21 C          15.6400    7.0030   12.0830 C.ar    1  LIG1        0.1128
     22 C          16.8000    7.4570   11.4800 C.ar    1  LIG1       -0.1701
     23 H          17.6320    7.0430   11.6780 H       1  LIG1        0.1399
     24 C          16.7110    8.5190   10.5940 C.ar    1  LIG1       -0.2219
     25 H          17.4910    8.8400   10.1580 H       1  LIG1        0.1196
     26 C          15.4850    9.1280   10.3320 C.ar    1  LIG1        0.3247
     27 C          14.3730    8.6590   10.9840 C.ar    1  LIG1       -0.3004
     28 H          13.5280    9.0670   10.8350 H       1  LIG1        0.1519
     29 C          14.4370    7.6050   11.8590 C.ar    1  LIG1       -0.0683
     30 H          13.6590    7.2930   12.3060 H       1  LIG1        0.1195
     31 O          15.4160   10.1130    9.4870 O.3     1  LIG1       -0.3168
     32 C          16.5800   10.5850    8.8200 C.3     1  LIG1        0.1063
     33 H          17.4490   10.0010    9.1240 H       1  LIG1        0.0144
     34 H          16.4410   10.4920    7.7430 H       1  LIG1        0.0455
     35 H          16.7420   11.6330    9.0730 H       1  LIG1        0.0163
     36 N           9.7670    1.0600   11.8040 N.pl3   1  LIG1       -0.8223
     37 H           8.9220    1.0520   12.1140 H       1  LIG1        0.3716
     38 H          10.0250    0.4620   11.1830 H       1  LIG1        0.3755
     39 N          10.6020    4.5990   14.5690 N.pl3   1  LIG1       -0.8030
     40 H          11.1060    5.2740   14.8850 H       1  LIG1        0.3510
     41 H           9.7800    4.4550   14.9060 H       1  LIG1        0.3393
@<TRIPOS>BOND
     1     1     2   ar
     2     2     3   ar
     3     3     4   ar
     4     4     5   ar
     5     5     6   ar
     6     6     1   ar
     7     6     7    1
     8     7     8    1
     9     7     9    1
    10     7    10    1
    11    10    11    1
    12    10    12    1
    13    10    13    1
    14    13    14    1
    15    13    15    1
    16    15    16    1
    17    15    17    1
    18    15     1    1
    19    13    18    1
    20    18    19    1
    21    18    20    1
    22    18    21    1
    23    21    22   ar
    24    22    23    1
    25    22    24   ar
    26    24    25    1
    27    24    26   ar
    28    26    27   ar
    29    27    28    1
    30    27    29   ar
    31    29    30    1
    32    29    21   ar
    33    26    31    1
    34    31    32    1
    35    32    33    1
    36    32    34    1
    37    32    35    1
    38     4    36    1
    39    36    37    1
    40    36    38    1
    41     2    39    1
    42    39    40    1
    43    39    41    1
