@<TRIPOS>MOLECULE
20_9b
 36 37 0 0 0
SMALL
USER_CHARGES
****
From 3DB ct
@<TRIPOS>ATOM
      1 C          12.2000    3.8600   13.2730 C.ar    1  LIG1       -0.7329
      2 C          10.8450    3.4660   13.6300 C.ar    1  LIG1        0.7693
      3 N          10.1440    2.5940   12.8960 N.ar    1  LIG1       -0.7192
      4 C          10.6980    1.9790   11.8240 C.ar    1  LIG1        0.8401
      5 N          12.0400    2.1470   11.5440 N.ar    1  LIG1       -0.6930
      6 C          12.7710    3.0540   12.3160 C.ar    1  LIG1        0.5267
      7 C          14.2620    3.0500   12.0220 C.3     1  LIG1       -0.1323
      8 H          14.5770    2.0210   11.7850 H       1  LIG1        0.0648
      9 H          14.4710    3.6520   11.1200 H       1  LIG1        0.0609
     10 C          15.0210    3.6230   13.2260 C.3     1  LIG1       -0.1003
     11 H          16.0900    3.7360   12.9740 H       1  LIG1        0.0356
     12 H          14.9700    2.9340   14.0880 H       1  LIG1        0.0416
     13 C          14.3780    4.9850   13.5720 C.3     1  LIG1        0.0423
     14 H          14.2050    5.4920   12.5970 H       1  LIG1        0.0149
     15 C          12.9590    4.8530   14.1790 C.3     1  LIG1        0.2658
     16 H          13.0260    4.4130   15.1920 H       1  LIG1       -0.0172
     17 H          12.5200    5.6950   14.2030 H       1  LIG1       -0.0262
     18 C          15.3640    5.9040   14.3000 C.3     1  LIG1        0.1819
     19 C          16.5860    6.2640   13.4140 C.3     1  LIG1       -0.2890
     20 H          17.2520    5.4120   13.2100 H       1  LIG1        0.0702
     21 H          16.2740    6.6820   12.4430 H       1  LIG1        0.0628
     22 H          17.2090    7.0270   13.9130 H       1  LIG1        0.0741
     23 C          14.6950    7.2600   14.6460 C.3     1  LIG1       -0.1786
     24 H          15.4230    7.9500   15.1080 H       1  LIG1        0.0524
     25 H          14.2970    7.7580   13.7460 H       1  LIG1        0.0367
     26 H          13.8640    7.1520   15.3610 H       1  LIG1        0.0215
     27 C          15.8750    5.2940   15.6250 C.3     1  LIG1       -0.2237
     28 H          16.5510    5.9970   16.1410 H       1  LIG1        0.0615
     29 H          15.0480    5.0660   16.3180 H       1  LIG1        0.0438
     30 H          16.4390    4.3600   15.4680 H       1  LIG1        0.0456
     31 N          10.0000    1.2030   11.0730 N.pl3   1  LIG1       -0.8470
     32 H           9.1310    1.0630   11.2570 H       1  LIG1        0.3797
     33 H          10.3810    0.8010   10.3640 H       1  LIG1        0.3836
     34 N          10.1820    3.9600   14.7110 N.pl3   1  LIG1       -0.7819
     35 H          10.5820    4.5620   15.2480 H       1  LIG1        0.3321
     36 H           9.3440    3.6840   14.8900 H       1  LIG1        0.3335
@<TRIPOS>BOND
     1     1     2   ar
     2     2     3   ar
     3     3     4   ar
     4     4     5   ar
     5     5     6   ar
     6     6     1   ar
     7     6     7    1
     8     7     8    1
     9     7     9    1
    10     7    10    1
    11    10    11    1
    12    10    12    1
    13    10    13    1
    14    13    14    1
    15    13    15    1
    16    15    16    1
    17    15    17    1
    18    15     1    1
    19    13    18    1
    20    18    19    1
    21    19    20    1
    22    19    21    1
    23    19    22    1
    24    18    23    1
    25    23    24    1
    26    23    25    1
    27    23    26    1
    28    18    27    1
    29    27    28    1
    30    27    29    1
    31    27    30    1
    32     4    31    1
    33    31    32    1
    34    31    33    1
    35     2    34    1
    36    34    35    1
    37    34    36    1
