@<TRIPOS>MOLECULE
21_16
 45 47 0 0 0
SMALL
USER_CHARGES
****
From 3DB ct
@<TRIPOS>ATOM
      1 N          10.1600    2.6240   12.9170 N.ar    1  LIG1       -0.6686
      2 C          10.7310    1.9410   11.9270 C.ar    1  LIG1        0.7928
      3 N          11.9940    2.1030   11.5340 N.ar    1  LIG1       -0.6369
      4 C          12.7320    3.0210   12.1830 C.ar    1  LIG1        0.2645
      5 C          12.2580    3.8030   13.2380 C.ar    1  LIG1       -0.1476
      6 C          10.9260    3.5290   13.5620 C.ar    1  LIG1        0.6422
      7 N          10.2770    4.2530   14.5560 N.pl3   1  LIG1       -0.7602
      8 H          10.8480    4.6120   15.3160 H       1  LIG1        0.3590
      9 H           9.3260    3.9810   14.7760 H       1  LIG1        0.3546
     10 N          13.0250    4.7320   13.8880 N.ar    1  LIG1       -0.3831
     11 C          14.3130    4.9070   13.4910 C.ar    1  LIG1        0.3903
     12 C          14.8530    4.1680   12.4470 C.ar    1  LIG1       -0.2688
     13 H          15.8830    4.3090   12.1320 H       1  LIG1        0.1542
     14 C          14.0480    3.2280   11.8030 C.ar    1  LIG1       -0.0755
     15 H          14.4670    2.6450   10.9850 H       1  LIG1        0.1262
     16 C          15.1610    5.9390   14.2240 C.3     1  LIG1       -0.2066
     17 H          15.5520    5.4330   15.1180 H       1  LIG1        0.1092
     18 H          14.5330    6.7680   14.5730 H       1  LIG1        0.0932
     19 N          16.2730    6.4520   13.3970 N.pl3   1  LIG1       -0.1570
     20 C          15.9580    7.2030   12.2520 C.ar    1  LIG1       -0.0414
     21 C          14.6810    7.7610   12.0830 C.ar    1  LIG1       -0.0262
     22 H          13.9060    7.6200   12.8340 H       1  LIG1        0.1117
     23 C          14.3560    8.4920   10.9370 C.ar    1  LIG1       -0.3131
     24 H          13.3540    8.9060   10.8380 H       1  LIG1        0.1546
     25 C          15.2950    8.6840    9.9280 C.ar    1  LIG1        0.3501
     26 C          16.5730    8.1400   10.0700 C.ar    1  LIG1       -0.3624
     27 H          17.3090    8.2930    9.2900 H       1  LIG1        0.1600
     28 C          16.9120    7.4050   11.2200 C.ar    1  LIG1        0.2195
     29 O          18.1600    6.8670   11.4440 O.3     1  LIG1       -0.2776
     30 C          19.1510    7.0430   10.4350 C.3     1  LIG1        0.0183
     31 H          20.0620    6.5430   10.7750 H       1  LIG1        0.0549
     32 H          19.3860    8.1040   10.2960 H       1  LIG1        0.0442
     33 H          18.8440    6.5740    9.4950 H       1  LIG1        0.0329
     34 O          14.8450    9.4150    8.8630 O.3     1  LIG1       -0.3135
     35 C          15.7660    9.6440    7.7970 C.3     1  LIG1        0.0702
     36 H          15.2510   10.2360    7.0340 H       1  LIG1        0.0556
     37 H          16.0760    8.7010    7.3360 H       1  LIG1        0.0248
     38 H          16.6290   10.2230    8.1420 H       1  LIG1        0.0212
     39 C          17.4570    5.6000   13.2570 C.3     1  LIG1       -0.0873
     40 H          18.2860    6.1110   12.7540 H       1  LIG1        0.0740
     41 H          17.2130    4.7010   12.6800 H       1  LIG1        0.0612
     42 H          17.8320    5.2860   14.2350 H       1  LIG1        0.0577
     43 N           9.9780    1.0170   11.2730 N.pl3   1  LIG1       -0.8210
     44 H          10.3820    0.4850   10.5170 H       1  LIG1        0.3769
     45 H           9.0170    0.8710   11.5450 H       1  LIG1        0.3732
@<TRIPOS>BOND
     1     1     2   ar
     2     2     3   ar
     3     3     4   ar
     4     4     5   ar
     5     5     6   ar
     6     6     1   ar
     7     6     7    1
     8     7     8    1
     9     7     9    1
    10     5    10   ar
    11    10    11   ar
    12    11    12   ar
    13    12    13    1
    14    12    14   ar
    15    14    15    1
    16    14     4   ar
    17    11    16    1
    18    16    17    1
    19    16    18    1
    20    16    19    1
    21    19    20    1
    22    20    21   ar
    23    21    22    1
    24    21    23   ar
    25    23    24    1
    26    23    25   ar
    27    25    26   ar
    28    26    27    1
    29    26    28   ar
    30    28    20   ar
    31    28    29    1
    32    29    30    1
    33    30    31    1
    34    30    32    1
    35    30    33    1
    36    25    34    1
    37    34    35    1
    38    35    36    1
    39    35    37    1
    40    35    38    1
    41    19    39    1
    42    39    40    1
    43    39    41    1
    44    39    42    1
    45     2    43    1
    46    43    44    1
    47    43    45    1
