@<TRIPOS>MOLECULE
21_18
 45 47 0 0 0
SMALL
USER_CHARGES
****
From 3DB ct
@<TRIPOS>ATOM
      1 N          10.1640    2.6250   12.9230 N.ar    1  LIG1       -0.6703
      2 C          10.7320    1.9370   11.9350 C.ar    1  LIG1        0.7943
      3 N          11.9930    2.0990   11.5360 N.ar    1  LIG1       -0.6385
      4 C          12.7320    3.0220   12.1770 C.ar    1  LIG1        0.2618
      5 C          12.2610    3.8080   13.2300 C.ar    1  LIG1       -0.1401
      6 C          10.9310    3.5340   13.5590 C.ar    1  LIG1        0.6405
      7 N          10.2840    4.2640   14.5520 N.pl3   1  LIG1       -0.7599
      8 H          10.8580    4.6290   15.3070 H       1  LIG1        0.3603
      9 H           9.3340    3.9920   14.7760 H       1  LIG1        0.3566
     10 N          13.0290    4.7420   13.8730 N.ar    1  LIG1       -0.3889
     11 C          14.3150    4.9150   13.4720 C.ar    1  LIG1        0.3861
     12 C          14.8520    4.1730   12.4300 C.ar    1  LIG1       -0.2650
     13 H          15.8820    4.3140   12.1110 H       1  LIG1        0.1435
     14 C          14.0470    3.2290   11.7920 C.ar    1  LIG1       -0.0799
     15 H          14.4650    2.6430   10.9750 H       1  LIG1        0.1282
     16 C          15.1650    5.9500   14.2000 C.3     1  LIG1       -0.1498
     17 H          15.5500    5.4510   15.1000 H       1  LIG1        0.0859
     18 H          14.5400    6.7860   14.5370 H       1  LIG1        0.0841
     19 N          16.2850    6.4500   13.3740 N.pl3   1  LIG1       -0.1244
     20 C          15.9800    7.2070   12.2290 C.ar    1  LIG1        0.0655
     21 C          14.7080    7.7870   12.0620 C.ar    1  LIG1       -0.3213
     22 H          13.9400    7.6460   12.8200 H       1  LIG1        0.1484
     23 C          14.3760    8.5300   10.9230 C.ar    1  LIG1        0.3390
     24 C          15.3270    8.7020    9.9240 C.ar    1  LIG1       -0.2600
     25 H          15.1190    9.2700    9.0200 H       1  LIG1        0.1309
     26 C          16.6010    8.1400   10.0610 C.ar    1  LIG1       -0.1895
     27 H          17.3100    8.3080    9.2550 H       1  LIG1        0.1408
     28 C          16.9370    7.3980   11.2000 C.ar    1  LIG1        0.1676
     29 O          18.1780    6.8440   11.4150 O.3     1  LIG1       -0.2788
     30 C          19.1600    7.0100   10.3960 C.3     1  LIG1        0.0106
     31 H          20.0710    6.5030   10.7270 H       1  LIG1        0.0585
     32 H          19.4020    8.0680   10.2510 H       1  LIG1        0.0430
     33 H          18.8400    6.5410    9.4600 H       1  LIG1        0.0364
     34 O          13.1000    9.0220   10.9100 O.3     1  LIG1       -0.3010
     35 C          12.7160    9.7870    9.7680 C.3     1  LIG1        0.0569
     36 H          11.6810   10.1080    9.9150 H       1  LIG1        0.0573
     37 H          12.7510    9.1780    8.8580 H       1  LIG1        0.0284
     38 H          13.3350   10.6850    9.6700 H       1  LIG1        0.0245
     39 C          17.4610    5.5860   13.2360 C.3     1  LIG1       -0.1021
     40 H          18.2930    6.0850   12.7290 H       1  LIG1        0.0755
     41 H          17.2060    4.6860   12.6660 H       1  LIG1        0.0615
     42 H          17.8350    5.2760   14.2160 H       1  LIG1        0.0555
     43 N           9.9780    1.0080   11.2880 N.pl3   1  LIG1       -0.8220
     44 H          10.3810    0.4710   10.5350 H       1  LIG1        0.3767
     45 H           9.0190    0.8610   11.5660 H       1  LIG1        0.3731
@<TRIPOS>BOND
     1     1     2   ar
     2     2     3   ar
     3     3     4   ar
     4     4     5   ar
     5     5     6   ar
     6     6     1   ar
     7     6     7    1
     8     7     8    1
     9     7     9    1
    10     5    10   ar
    11    10    11   ar
    12    11    12   ar
    13    12    13    1
    14    12    14   ar
    15    14    15    1
    16    14     4   ar
    17    11    16    1
    18    16    17    1
    19    16    18    1
    20    16    19    1
    21    19    20    1
    22    20    21   ar
    23    21    22    1
    24    21    23   ar
    25    23    24   ar
    26    24    25    1
    27    24    26   ar
    28    26    27    1
    29    26    28   ar
    30    28    20   ar
    31    28    29    1
    32    29    30    1
    33    30    31    1
    34    30    32    1
    35    30    33    1
    36    23    34    1
    37    34    35    1
    38    35    36    1
    39    35    37    1
    40    35    38    1
    41    19    39    1
    42    39    40    1
    43    39    41    1
    44    39    42    1
    45     2    43    1
    46    43    44    1
    47    43    45    1
