@<TRIPOS>MOLECULE
21_42
 41 43 0 0 0
SMALL
USER_CHARGES
****
From 3DB ct
@<TRIPOS>ATOM
      1 N          10.1460    2.6410   12.8970 N.ar    1  LIG1       -0.6640
      2 C          10.7140    1.9800   11.8900 C.ar    1  LIG1        0.7919
      3 N          11.9880    2.1170   11.5260 N.ar    1  LIG1       -0.6346
      4 C          12.7360    2.9950   12.2150 C.ar    1  LIG1        0.2603
      5 C          12.2660    3.7600   13.2860 C.ar    1  LIG1       -0.1418
      6 C          10.9250    3.5030   13.5850 C.ar    1  LIG1        0.6404
      7 N          10.2790    4.2020   14.5990 N.pl3   1  LIG1       -0.7589
      8 H          10.8450    4.5220   15.3800 H       1  LIG1        0.3565
      9 H           9.3220    3.9330   14.7960 H       1  LIG1        0.3526
     10 N          13.0460    4.6590   13.9650 N.ar    1  LIG1       -0.3675
     11 C          14.3360    4.8220   13.5700 C.ar    1  LIG1        0.3325
     12 C          14.8760    4.0840   12.5260 C.ar    1  LIG1       -0.2704
     13 H          15.9110    4.2200   12.2220 H       1  LIG1        0.1557
     14 C          14.0610    3.1730   11.8580 C.ar    1  LIG1       -0.0594
     15 H          14.4760    2.5970   11.0340 H       1  LIG1        0.1236
     16 C          15.1960    5.8590   14.2880 C.3     1  LIG1       -0.1325
     17 H          15.5750    5.3460   15.1780 H       1  LIG1        0.1106
     18 H          14.5650    6.6870   14.6320 H       1  LIG1        0.0921
     19 N          16.2810    6.3970   13.4370 N.pl3   1  LIG1       -0.1472
     20 C          16.0190    7.1710   12.2910 C.ar    1  LIG1        0.2294
     21 C          14.7430    7.7280   12.0640 C.ar    1  LIG1       -0.1849
     22 H          13.9320    7.5730   12.7750 H       1  LIG1        0.1100
     23 C          14.4410    8.4920   10.9250 C.ar    1  LIG1       -0.0483
     24 H          13.4340    8.8900   10.8300 H       1  LIG1        0.1099
     25 C          15.4150    8.7190    9.9550 C.ar    1  LIG1       -0.2158
     26 C          16.6910    8.1870   10.1530 C.ar    1  LIG1       -0.0114
     27 H          17.4780    8.3500    9.4180 H       1  LIG1        0.1215
     28 C          16.9830    7.4300   11.3020 C.ar    1  LIG1       -0.2349
     29 H          18.0020    7.0640   11.3850 H       1  LIG1        0.1246
     30 C          15.1410    9.5120    8.7180 C.2     1  LIG1        0.5048
     31 O          16.0500    9.7550    7.9210 O.2     1  LIG1       -0.4007
     32 C          13.7400   10.0080    8.4700 C.3     1  LIG1       -0.2685
     33 H          13.6980   10.4720    7.4810 H       1  LIG1        0.0682
     34 H          13.4700   10.7610    9.2150 H       1  LIG1        0.0754
     35 H          13.0310    9.1750    8.4810 H       1  LIG1        0.0764
     36 C          17.5560    5.9150   13.6760 C.1     1  LIG1       -0.0019
     37 C          18.6630    5.5050   13.8980 C.1     1  LIG1       -0.3201
     38 H          19.6480    5.1500   14.0950 H       1  LIG1        0.2907
     39 N           9.9460    1.1110   11.1790 N.pl3   1  LIG1       -0.8158
     40 H          10.3500    0.6070   10.4030 H       1  LIG1        0.3778
     41 H           8.9700    1.0010   11.4080 H       1  LIG1        0.3737
@<TRIPOS>BOND
     1     1     2   ar
     2     2     3   ar
     3     3     4   ar
     4     4     5   ar
     5     5     6   ar
     6     6     1   ar
     7     6     7    1
     8     7     8    1
     9     7     9    1
    10     5    10   ar
    11    10    11   ar
    12    11    12   ar
    13    12    13    1
    14    12    14   ar
    15    14    15    1
    16    14     4   ar
    17    11    16    1
    18    16    17    1
    19    16    18    1
    20    16    19    1
    21    19    20    1
    22    20    21   ar
    23    21    22    1
    24    21    23   ar
    25    23    24    1
    26    23    25   ar
    27    25    26   ar
    28    26    27    1
    29    26    28   ar
    30    28    29    1
    31    28    20   ar
    32    25    30    1
    33    30    31    2
    34    30    32    1
    35    32    33    1
    36    32    34    1
    37    32    35    1
    38    19    36    1
    39    36    37    3
    40    37    38    1
    41     2    39    1
    42    39    40    1
    43    39    41    1
