@<TRIPOS>MOLECULE
21_44
 41 43 0 0 0
SMALL
USER_CHARGES
****
From 3DB ct
@<TRIPOS>ATOM
      1 N          10.1490    2.6440   12.9050 N.ar    1  LIG1       -0.6645
      2 C          10.7090    1.9720   11.9020 C.ar    1  LIG1        0.7996
      3 N          11.9790    2.1100   11.5240 N.ar    1  LIG1       -0.6393
      4 C          12.7350    2.9910   12.2020 C.ar    1  LIG1        0.2676
      5 C          12.2750    3.7570   13.2750 C.ar    1  LIG1       -0.1466
      6 C          10.9330    3.5110   13.5800 C.ar    1  LIG1        0.6381
      7 N          10.2940    4.2320   14.5830 N.pl3   1  LIG1       -0.7542
      8 H          10.8620    4.5560   15.3600 H       1  LIG1        0.3559
      9 H           9.3320    3.9820   14.7850 H       1  LIG1        0.3538
     10 N          13.0630    4.6520   13.9510 N.ar    1  LIG1       -0.3550
     11 C          14.3550    4.8100   13.5610 C.ar    1  LIG1        0.3169
     12 C          14.8750    4.0910   12.4940 C.ar    1  LIG1       -0.2738
     13 H          15.9030    4.2260   12.1710 H       1  LIG1        0.1561
     14 C          14.0550    3.1790   11.8290 C.ar    1  LIG1       -0.0580
     15 H          14.4630    2.6120   10.9960 H       1  LIG1        0.1239
     16 C          15.1970    5.8450   14.2960 C.3     1  LIG1       -0.1421
     17 H          15.6200    5.4080   15.2090 H       1  LIG1        0.1172
     18 H          14.5090    6.6260   14.6480 H       1  LIG1        0.0919
     19 N          16.2670    6.4310   13.4650 N.pl3   1  LIG1       -0.1495
     20 C          16.0010    7.1750   12.3040 C.ar    1  LIG1        0.2490
     21 C          14.7290    7.7290   12.0610 C.ar    1  LIG1       -0.1150
     22 H          13.9140    7.5820   12.7690 H       1  LIG1        0.1079
     23 C          14.4410    8.4900   10.9150 C.ar    1  LIG1       -0.1804
     24 H          13.4280    8.8730   10.8090 H       1  LIG1        0.1522
     25 C          15.4290    8.7270    9.9600 C.ar    1  LIG1       -0.0667
     26 C          16.6970    8.1760   10.1690 C.ar    1  LIG1        0.0002
     27 H          17.4960    8.3300    9.4450 H       1  LIG1        0.1284
     28 C          16.9730    7.4180   11.3200 C.ar    1  LIG1       -0.2783
     29 H          17.9840    7.0290   11.4120 H       1  LIG1        0.1378
     30 C          15.1910    9.5420    8.7300 C.2     1  LIG1        0.1536
     31 O          16.1620    9.8620    8.0290 O.2     1  LIG1       -0.2802
     32 C          13.7580    9.9320    8.3950 C.3     1  LIG1        1.0219
     33 F          13.6820   10.8410    7.3720 F       1  LIG1       -0.3339
     34 F          13.0900   10.5050    9.4420 F       1  LIG1       -0.3278
     35 F          12.9950    8.8690    7.9950 F       1  LIG1       -0.3266
     36 C          17.5600    6.1780   13.8800 C.1     1  LIG1        0.0116
     37 C          18.6780    5.9560   14.2580 C.1     1  LIG1       -0.3236
     38 H          19.6710    5.7650   14.5950 H       1  LIG1        0.2961
     39 N           9.9350    1.0910   11.2140 N.pl3   1  LIG1       -0.8184
     40 H          10.3280    0.5750   10.4410 H       1  LIG1        0.3795
     41 H           8.9660    0.9730   11.4700 H       1  LIG1        0.3749
@<TRIPOS>BOND
     1     1     2   ar
     2     2     3   ar
     3     3     4   ar
     4     4     5   ar
     5     5     6   ar
     6     6     1   ar
     7     6     7    1
     8     7     8    1
     9     7     9    1
    10     5    10   ar
    11    10    11   ar
    12    11    12   ar
    13    12    13    1
    14    12    14   ar
    15    14    15    1
    16    14     4   ar
    17    11    16    1
    18    16    17    1
    19    16    18    1
    20    16    19    1
    21    19    20    1
    22    20    21   ar
    23    21    22    1
    24    21    23   ar
    25    23    24    1
    26    23    25   ar
    27    25    26   ar
    28    26    27    1
    29    26    28   ar
    30    28    29    1
    31    28    20   ar
    32    25    30    1
    33    30    31    2
    34    30    32    1
    35    32    33    1
    36    32    34    1
    37    32    35    1
    38    19    36    1
    39    36    37    3
    40    37    38    1
    41     2    39    1
    42    39    40    1
    43    39    41    1
