@<TRIPOS>MOLECULE
21_8
 38 40 0 0 0
SMALL
USER_CHARGES
****
From 3DB ct
@<TRIPOS>ATOM
      1 N          10.1670    2.6530   12.9200 N.ar    1  LIG1       -0.6628
      2 C          10.7220    1.9720   11.9180 C.ar    1  LIG1        0.7913
      3 N          11.9870    2.1140   11.5250 N.ar    1  LIG1       -0.6333
      4 C          12.7450    3.0060   12.1870 C.ar    1  LIG1        0.2451
      5 C          12.2890    3.7830   13.2550 C.ar    1  LIG1       -0.1152
      6 C          10.9530    3.5310   13.5760 C.ar    1  LIG1        0.6268
      7 N          10.3220    4.2510   14.5850 N.pl3   1  LIG1       -0.7570
      8 H          10.9010    4.5840   15.3510 H       1  LIG1        0.3575
      9 H           9.3660    3.9950   14.8020 H       1  LIG1        0.3551
     10 N          13.0770    4.6860   13.9180 N.ar    1  LIG1       -0.3824
     11 C          14.3670    4.8350   13.5230 C.ar    1  LIG1        0.3317
     12 C          14.8890    4.1050   12.4650 C.ar    1  LIG1       -0.2531
     13 H          15.9190    4.2420   12.1480 H       1  LIG1        0.1398
     14 C          14.0660    3.1910   11.8080 C.ar    1  LIG1       -0.0608
     15 H          14.4710    2.6150   10.9790 H       1  LIG1        0.1229
     16 C          15.2290    5.8570   14.2460 C.3     1  LIG1       -0.0818
     17 H          15.6810    5.3740   15.1210 H       1  LIG1        0.0759
     18 H          14.5860    6.6700   14.6050 H       1  LIG1        0.0913
     19 N          16.2560    6.3920   13.3600 N.pl3   1  LIG1       -0.4621
     20 H          17.2040    6.0480   13.5050 H       1  LIG1        0.2962
     21 C          16.0000    7.1700   12.2500 C.ar    1  LIG1        0.3022
     22 C          14.7190    7.7100   12.0830 C.ar    1  LIG1       -0.2702
     23 H          13.9470    7.5280   12.8300 H       1  LIG1        0.1237
     24 C          14.3980    8.4890   10.9680 C.ar    1  LIG1        0.0326
     25 H          13.3950    8.8990   10.8660 H       1  LIG1        0.1016
     26 C          15.3570    8.7390    9.9870 C.ar    1  LIG1       -0.3718
     27 H          15.0690    9.3490    9.1350 H       1  LIG1        0.1505
     28 C          16.6360    8.2070   10.1230 C.ar    1  LIG1        0.4248
     29 C          16.9440    7.4260   11.2470 C.ar    1  LIG1       -0.4340
     30 H          17.9510    7.0210   11.3240 H       1  LIG1        0.1280
     31 O          17.6690    8.3690    9.2390 O.3     1  LIG1       -0.3205
     32 C          18.9040    7.7360    9.5710 C.3     1  LIG1        0.0653
     33 H          19.6160    7.9570    8.7700 H       1  LIG1        0.0549
     34 H          18.7870    6.6480    9.6230 H       1  LIG1        0.0284
     35 H          19.3140    8.1380   10.5030 H       1  LIG1        0.0275
     36 N           9.9480    1.0760   11.2510 N.pl3   1  LIG1       -0.8183
     37 H          10.3410    0.5450   10.4870 H       1  LIG1        0.3774
     38 H           8.9850    0.9460   11.5220 H       1  LIG1        0.3729
@<TRIPOS>BOND
     1     1     2   ar
     2     2     3   ar
     3     3     4   ar
     4     4     5   ar
     5     5     6   ar
     6     6     1   ar
     7     6     7    1
     8     7     8    1
     9     7     9    1
    10     5    10   ar
    11    10    11   ar
    12    11    12   ar
    13    12    13    1
    14    12    14   ar
    15    14    15    1
    16    14     4   ar
    17    11    16    1
    18    16    17    1
    19    16    18    1
    20    16    19    1
    21    19    20    1
    22    19    21    1
    23    21    22   ar
    24    22    23    1
    25    22    24   ar
    26    24    25    1
    27    24    26   ar
    28    26    27    1
    29    26    28   ar
    30    28    29   ar
    31    29    30    1
    32    29    21   ar
    33    28    31    1
    34    31    32    1
    35    32    33    1
    36    32    34    1
    37    32    35    1
    38     2    36    1
    39    36    37    1
    40    36    38    1
