@<TRIPOS>MOLECULE
22_13
 31 33 0 0 0
SMALL
USER_CHARGES
****
From 3DB ct
@<TRIPOS>ATOM
      1 N          10.2480    2.6860   13.1180 N.ar    1  LIG1       -0.6697
      2 C          10.6710    1.6910   12.3410 C.ar    1  LIG1        0.7966
      3 N          11.8750    1.6450   11.7710 N.ar    1  LIG1       -0.6309
      4 C          12.7070    2.6760   12.0000 C.ar    1  LIG1        0.2295
      5 C          12.3910    3.7770   12.7950 C.ar    1  LIG1       -0.1361
      6 C          11.1090    3.7010   13.3430 C.ar    1  LIG1        0.6471
      7 N          10.6100    4.7400   14.1200 N.pl3   1  LIG1       -0.7542
      8 H          11.2820    5.2870   14.6510 H       1  LIG1        0.3526
      9 H           9.6910    4.6100   14.5260 H       1  LIG1        0.3528
     10 N          13.2520    4.8180   13.0190 N.ar    1  LIG1       -0.4445
     11 C          14.4760    4.7970   12.4550 C.ar    1  LIG1        0.6920
     12 C          14.8530    3.7360   11.6430 C.ar    1  LIG1       -0.3921
     13 H          15.8320    3.7160   11.1710 H       1  LIG1        0.1687
     14 C          13.9650    2.6800   11.4250 C.ar    1  LIG1       -0.0166
     15 H          14.2700    1.8520   10.7900 H       1  LIG1        0.1255
     16 N          15.3820    5.8540   12.6380 N.pl3   1  LIG1       -0.8642
     17 H          15.9170    5.7700   13.5010 H       1  LIG1        0.3608
     18 C          15.5370    7.0850   11.9770 C.ar    1  LIG1        0.6548
     19 C          14.4850    7.9800   11.7480 C.ar    1  LIG1       -0.4432
     20 H          13.4740    7.7510   12.0750 H       1  LIG1        0.1837
     21 C          14.6960    9.1910   11.0760 C.ar    1  LIG1        0.2624
     22 H          13.8580    9.8650   10.9140 H       1  LIG1        0.0471
     23 C          15.9680    9.5190   10.6200 C.ar    1  LIG1       -0.5238
     24 C          17.0290    8.6440   10.8270 C.ar    1  LIG1        0.2339
     25 H          18.0270    8.8870   10.4720 H       1  LIG1        0.0579
     26 C          16.8100    7.4360   11.4980 C.ar    1  LIG1       -0.4456
     27 H          17.6570    6.7660   11.6480 H       1  LIG1        0.1527
     28 CL         16.2290   11.0050    9.7940 Cl      1  LIG1        0.0758
     29 N           9.8220    0.6550   12.1110 N.pl3   1  LIG1       -0.8287
     30 H          10.1140   -0.1120   11.5250 H       1  LIG1        0.3791
     31 H           8.9020    0.6600   12.5270 H       1  LIG1        0.3767
@<TRIPOS>BOND
     1     1     2   ar
     2     2     3   ar
     3     3     4   ar
     4     4     5   ar
     5     5     6   ar
     6     6     1   ar
     7     6     7    1
     8     7     8    1
     9     7     9    1
    10     5    10   ar
    11    10    11   ar
    12    11    12   ar
    13    12    13    1
    14    12    14   ar
    15    14    15    1
    16    14     4   ar
    17    11    16    1
    18    16    17    1
    19    16    18    1
    20    18    19   ar
    21    19    20    1
    22    19    21   ar
    23    21    22    1
    24    21    23   ar
    25    23    24   ar
    26    24    25    1
    27    24    26   ar
    28    26    27    1
    29    26    18   ar
    30    23    28    1
    31     2    29    1
    32    29    30    1
    33    29    31    1
