@<TRIPOS>MOLECULE
22_16
 43 45 0 0 0
SMALL
USER_CHARGES
****
From 3DB ct
@<TRIPOS>ATOM
      1 N          10.2430    2.6030   13.1740 N.ar    1  LIG1       -0.6659
      2 C          10.6830    1.5650   12.4640 C.ar    1  LIG1        0.7999
      3 N          11.8910    1.4970   11.9060 N.ar    1  LIG1       -0.6404
      4 C          12.7100    2.5510   12.0750 C.ar    1  LIG1        0.2411
      5 C          12.3760    3.6960   12.7970 C.ar    1  LIG1       -0.1429
      6 C          11.0910    3.6390   13.3400 C.ar    1  LIG1        0.6426
      7 N          10.5750    4.7200   14.0460 N.pl3   1  LIG1       -0.7749
      8 H          11.2370    5.3070   14.5470 H       1  LIG1        0.3726
      9 H           9.6530    4.6060   14.4530 H       1  LIG1        0.3622
     10 N          13.2240    4.7580   12.9610 N.ar    1  LIG1       -0.4190
     11 C          14.4510    4.7150   12.4080 C.ar    1  LIG1        0.6181
     12 C          14.8470    3.6100   11.6660 C.ar    1  LIG1       -0.3814
     13 H          15.8290    3.5720   11.2030 H       1  LIG1        0.1635
     14 C          13.9720    2.5330   11.5090 C.ar    1  LIG1       -0.0142
     15 H          14.2910    1.6700   10.9290 H       1  LIG1        0.1216
     16 N          15.3450    5.7930   12.5310 N.pl3   1  LIG1       -0.6911
     17 H          15.9420    5.7160   13.3530 H       1  LIG1        0.3197
     18 C          15.4190    7.0320   11.8700 C.ar    1  LIG1        0.4278
     19 C          14.3270    7.8920   11.7120 C.ar    1  LIG1       -0.3768
     20 H          13.3480    7.6280   12.1020 H       1  LIG1        0.1902
     21 C          14.4680    9.1090   11.0370 C.ar    1  LIG1        0.2919
     22 C          15.7090    9.5100   10.5360 C.ar    1  LIG1       -0.0100
     23 C          16.7960    8.6390   10.6310 C.ar    1  LIG1        0.1446
     24 C          16.6510    7.4240   11.3140 C.ar    1  LIG1       -0.3951
     25 H          17.5180    6.7720   11.4080 H       1  LIG1        0.1764
     26 O          18.0550    8.9030   10.1580 O.3     1  LIG1       -0.2244
     27 C          18.9870    7.8420   10.3840 C.3     1  LIG1       -0.0590
     28 H          19.9810    8.2900   10.4800 H       1  LIG1        0.0749
     29 H          19.0090    7.1690    9.5220 H       1  LIG1        0.0653
     30 H          18.7780    7.2890   11.3060 H       1  LIG1        0.0583
     31 O          15.8260   10.7330    9.9280 O.3     1  LIG1       -0.2215
     32 C          17.1770   10.9320    9.4950 C.3     1  LIG1        0.0197
     33 H          17.2320   11.9160    9.0200 H       1  LIG1        0.0500
     34 H          17.4690   10.1800    8.7540 H       1  LIG1        0.0510
     35 H          17.8720   10.9240   10.3410 H       1  LIG1        0.0427
     36 O          13.3760    9.9370   10.9500 O.3     1  LIG1       -0.3180
     37 C          13.7240   11.1230   10.2270 C.3     1  LIG1        0.1134
     38 H          12.8320   11.7550   10.1750 H       1  LIG1        0.0311
     39 H          14.0320   10.8840    9.2030 H       1  LIG1        0.0216
     40 H          14.5100   11.6850   10.7420 H       1  LIG1        0.0101
     41 N           9.8470    0.5070   12.2950 N.pl3   1  LIG1       -0.8291
     42 H          10.1520   -0.2930   11.7600 H       1  LIG1        0.3795
     43 H           8.9240    0.5280   12.7030 H       1  LIG1        0.3738
@<TRIPOS>BOND
     1     1     2   ar
     2     2     3   ar
     3     3     4   ar
     4     4     5   ar
     5     5     6   ar
     6     6     1   ar
     7     6     7    1
     8     7     8    1
     9     7     9    1
    10     5    10   ar
    11    10    11   ar
    12    11    12   ar
    13    12    13    1
    14    12    14   ar
    15    14    15    1
    16    14     4   ar
    17    11    16    1
    18    16    17    1
    19    16    18    1
    20    18    19   ar
    21    19    20    1
    22    19    21   ar
    23    21    22   ar
    24    22    23   ar
    25    23    24   ar
    26    24    25    1
    27    24    18   ar
    28    23    26    1
    29    26    27    1
    30    27    28    1
    31    27    29    1
    32    27    30    1
    33    22    31    1
    34    31    32    1
    35    32    33    1
    36    32    34    1
    37    32    35    1
    38    21    36    1
    39    36    37    1
    40    37    38    1
    41    37    39    1
    42    37    40    1
    43     2    41    1
    44    41    42    1
    45    41    43    1
