@<TRIPOS>MOLECULE
22_22
 46 48 0 0 0
SMALL
USER_CHARGES
****
From 3DB ct
@<TRIPOS>ATOM
      1 N          10.2490    2.7090   13.1160 N.ar    1  LIG1       -0.6737
      2 C          10.6610    1.6900   12.3650 C.ar    1  LIG1        0.8166
      3 N          11.8720    1.6030   11.8180 N.ar    1  LIG1       -0.6423
      4 C          12.7260    2.6180   12.0440 C.ar    1  LIG1        0.2109
      5 C          12.4240    3.7400   12.8130 C.ar    1  LIG1       -0.1404
      6 C          11.1310    3.7060   13.3380 C.ar    1  LIG1        0.6451
      7 N          10.6450    4.7710   14.0870 N.pl3   1  LIG1       -0.7664
      8 H          11.3210    5.3170   14.6140 H       1  LIG1        0.3504
      9 H           9.7150    4.6730   14.4790 H       1  LIG1        0.3557
     10 N          13.3090    4.7610   13.0350 N.ar    1  LIG1       -0.4080
     11 C          14.5480    4.7040   12.4980 C.ar    1  LIG1        0.6082
     12 C          14.9060    3.6180   11.7070 C.ar    1  LIG1       -0.4068
     13 H          15.8770    3.5670   11.2240 H       1  LIG1        0.1610
     14 C          13.9920    2.5830   11.4910 C.ar    1  LIG1        0.0299
     15 H          14.2850    1.7400   10.8680 H       1  LIG1        0.1157
     16 N          15.4460    5.7690   12.7300 N.pl3   1  LIG1       -0.5096
     17 C          15.5140    6.9700   11.9790 C.ar    1  LIG1        0.3035
     18 C          14.3550    7.7410   11.7610 C.ar    1  LIG1       -0.1296
     19 H          13.3980    7.4220   12.1670 H       1  LIG1        0.1263
     20 C          14.3920    8.9230   11.0150 C.ar    1  LIG1       -0.0075
     21 C          15.5960    9.3950   10.4910 C.ar    1  LIG1        0.1460
     22 C          16.7490    8.6240   10.6400 C.ar    1  LIG1        0.1458
     23 C          16.7060    7.4410   11.3950 C.ar    1  LIG1       -0.3597
     24 H          17.6410    6.9000   11.5200 H       1  LIG1        0.1966
     25 O          17.9830    8.9690   10.1520 O.3     1  LIG1       -0.2631
     26 C          18.9990    8.0040   10.4420 C.3     1  LIG1        0.0050
     27 H          19.9510    8.5380   10.5130 H       1  LIG1        0.0607
     28 H          19.0820    7.2850    9.6220 H       1  LIG1        0.0483
     29 H          18.8310    7.4900   11.3950 H       1  LIG1        0.0417
     30 O          15.6160   10.5850    9.8110 O.3     1  LIG1       -0.1990
     31 C          16.9480   10.8680    9.3670 C.3     1  LIG1       -0.0304
     32 H          16.9240   11.8210    8.8300 H       1  LIG1        0.0656
     33 H          17.3060   10.0980    8.6760 H       1  LIG1        0.0571
     34 H          17.6350   10.9720   10.2140 H       1  LIG1        0.0580
     35 O          13.2340    9.6460   10.8800 O.3     1  LIG1       -0.2495
     36 C          13.4790   10.8130   10.0870 C.3     1  LIG1        0.0476
     37 H          12.5360   11.3610   10.0010 H       1  LIG1        0.0488
     38 H          13.8070   10.5410    9.0780 H       1  LIG1        0.0306
     39 H          14.2130   11.4720   10.5630 H       1  LIG1        0.0375
     40 C          16.1120    5.7440   14.0430 C.3     1  LIG1        0.0110
     41 H          15.5630    6.3670   14.7590 H       1  LIG1        0.0355
     42 H          17.1430    6.1090   13.9640 H       1  LIG1        0.0558
     43 H          16.1820    4.7460   14.4870 H       1  LIG1        0.0548
     44 N           9.7890    0.6710   12.1390 N.pl3   1  LIG1       -0.8430
     45 H          10.0730   -0.1160   11.5750 H       1  LIG1        0.3820
     46 H           8.8640    0.7050   12.5410 H       1  LIG1        0.3773
@<TRIPOS>BOND
     1     1     2   ar
     2     2     3   ar
     3     3     4   ar
     4     4     5   ar
     5     5     6   ar
     6     6     1   ar
     7     6     7    1
     8     7     8    1
     9     7     9    1
    10     5    10   ar
    11    10    11   ar
    12    11    12   ar
    13    12    13    1
    14    12    14   ar
    15    14    15    1
    16    14     4   ar
    17    11    16    1
    18    16    17    1
    19    17    18   ar
    20    18    19    1
    21    18    20   ar
    22    20    21   ar
    23    21    22   ar
    24    22    23   ar
    25    23    24    1
    26    23    17   ar
    27    22    25    1
    28    25    26    1
    29    26    27    1
    30    26    28    1
    31    26    29    1
    32    21    30    1
    33    30    31    1
    34    31    32    1
    35    31    33    1
    36    31    34    1
    37    20    35    1
    38    35    36    1
    39    36    37    1
    40    36    38    1
    41    36    39    1
    42    16    40    1
    43    40    41    1
    44    40    42    1
    45    40    43    1
    46     2    44    1
    47    44    45    1
    48    44    46    1
