@<TRIPOS>MOLECULE
22_6
 38 40 0 0 0
SMALL
USER_CHARGES
****
From 3DB ct
@<TRIPOS>ATOM
      1 N          10.2360    2.8470   12.9590 N.ar    1  LIG1       -0.6717
      2 C          10.6170    1.9690   12.0330 C.ar    1  LIG1        0.8222
      3 N          11.8390    1.9170   11.5060 N.ar    1  LIG1       -0.6331
      4 C          12.7430    2.8090   11.9480 C.ar    1  LIG1        0.1756
      5 C          12.4750    3.7810   12.9150 C.ar    1  LIG1       -0.0511
      6 C          11.1560    3.7410   13.3740 C.ar    1  LIG1        0.6074
      7 N          10.7320    4.6110   14.3720 N.pl3   1  LIG1       -0.7431
      8 H          11.1870    5.5180   14.4250 H       1  LIG1        0.3521
      9 H           9.7530    4.5670   14.6330 H       1  LIG1        0.3588
     10 N          13.4030    4.6830   13.3560 N.ar    1  LIG1       -0.3957
     11 C          14.6470    4.6220   12.8350 C.ar    1  LIG1        0.3258
     12 C          14.9970    3.6970   11.8670 C.ar    1  LIG1       -0.3095
     13 H          15.9970    3.6670   11.4460 H       1  LIG1        0.1382
     14 C          14.0300    2.7900   11.4330 C.ar    1  LIG1        0.0148
     15 H          14.2930    2.0560   10.6750 H       1  LIG1        0.1153
     16 S          15.8170    5.8190   13.4410 S.3     1  LIG1       -0.0371
     17 C          15.6640    7.1020   12.2110 C.ar    1  LIG1       -0.0535
     18 C          14.4200    7.6590   11.8970 C.ar    1  LIG1       -0.1781
     19 H          13.5170    7.3160   12.4000 H       1  LIG1        0.1451
     20 C          14.3100    8.6730   10.9350 C.ar    1  LIG1       -0.1179
     21 H          13.3210    9.0780   10.7400 H       1  LIG1        0.1309
     22 C          15.4440    9.1330   10.2640 C.ar    1  LIG1        0.1405
     23 C          16.6810    8.5400   10.5550 C.ar    1  LIG1        0.0785
     24 C          16.7990    7.5450   11.5300 C.ar    1  LIG1       -0.0787
     25 H          17.7790    7.1270   11.7530 H       1  LIG1        0.1079
     26 O          17.8260    8.9750    9.9310 O.3     1  LIG1       -0.1925
     27 C          18.9470    8.2090   10.3890 C.3     1  LIG1       -0.0929
     28 H          19.8380    8.5790    9.8730 H       1  LIG1        0.0883
     29 H          18.8280    7.1470   10.1440 H       1  LIG1        0.0652
     30 H          19.1000    8.3380   11.4660 H       1  LIG1        0.0714
     31 O          15.4560   10.1290    9.3230 O.3     1  LIG1       -0.2983
     32 C          16.7300   10.5280    8.8200 C.3     1  LIG1        0.1292
     33 H          16.5600   11.2870    8.0520 H       1  LIG1        0.0292
     34 H          17.2500    9.6870    8.3490 H       1  LIG1        0.0135
     35 H          17.3380   10.9810    9.6100 H       1  LIG1        0.0171
     36 N           9.7000    1.0640   11.5970 N.pl3   1  LIG1       -0.8326
     37 H           9.9610    0.3810   10.9020 H       1  LIG1        0.3815
     38 H           8.7660    1.0720   11.9810 H       1  LIG1        0.3771
@<TRIPOS>BOND
     1     1     2   ar
     2     2     3   ar
     3     3     4   ar
     4     4     5   ar
     5     5     6   ar
     6     6     1   ar
     7     6     7    1
     8     7     8    1
     9     7     9    1
    10     5    10   ar
    11    10    11   ar
    12    11    12   ar
    13    12    13    1
    14    12    14   ar
    15    14    15    1
    16    14     4   ar
    17    11    16    1
    18    16    17    1
    19    17    18   ar
    20    18    19    1
    21    18    20   ar
    22    20    21    1
    23    20    22   ar
    24    22    23   ar
    25    23    24   ar
    26    24    25    1
    27    24    17   ar
    28    23    26    1
    29    26    27    1
    30    27    28    1
    31    27    29    1
    32    27    30    1
    33    22    31    1
    34    31    32    1
    35    32    33    1
    36    32    34    1
    37    32    35    1
    38     2    36    1
    39    36    37    1
    40    36    38    1
