@<TRIPOS>MOLECULE
23_4b
 37 39 0 0 0
SMALL
USER_CHARGES
****
From 3DB ct
@<TRIPOS>ATOM
      1 N          10.1250    2.6280   12.8050 N.ar    1  LIG1       -0.7126
      2 C          10.7980    1.9690   11.8730 C.ar    1  LIG1        0.8099
      3 N          12.0790    2.1660   11.6040 N.ar    1  LIG1       -0.7042
      4 C          12.7350    3.0760   12.3030 C.ar    1  LIG1        0.8409
      5 C          12.1560    3.8500   13.3160 C.ar    1  LIG1       -0.8591
      6 C          10.7890    3.5520   13.5160 C.ar    1  LIG1        0.8170
      7 N           9.9990    4.1830   14.4660 N.pl3   1  LIG1       -0.7562
      8 H          10.2760    4.0170   15.4310 H       1  LIG1        0.3243
      9 H           9.8500    5.1760   14.3060 H       1  LIG1        0.3233
     10 C          13.0020    4.8120   13.9960 C.ar    1  LIG1        0.4826
     11 C          14.3570    4.9200   13.6230 C.ar    1  LIG1       -0.4512
     12 C          14.7900    4.0960   12.5980 C.ar    1  LIG1        0.3951
     13 H          15.8200    4.1340   12.2450 H       1  LIG1        0.0861
     14 N          14.0110    3.1980   11.9550 N.ar    1  LIG1       -0.5893
     15 C          15.3510    5.8780   14.2400 C.3     1  LIG1        0.2103
     16 H          15.8580    5.3930   15.0840 H       1  LIG1        0.0569
     17 H          14.8170    6.7400   14.6570 H       1  LIG1        0.0483
     18 N          16.3320    6.2850   13.2490 N.pl3   1  LIG1       -0.7698
     19 H          17.2850    5.9520   13.3790 H       1  LIG1        0.3852
     20 C          16.0620    7.0980   12.1670 C.ar    1  LIG1        0.4531
     21 C          14.7790    7.6480   12.0410 C.ar    1  LIG1       -0.2777
     22 H          14.0160    7.4300   12.7870 H       1  LIG1        0.1235
     23 C          14.4430    8.4820   10.9690 C.ar    1  LIG1        0.1321
     24 H          13.4360    8.8890   10.9070 H       1  LIG1        0.0675
     25 C          15.3930    8.7840    9.9960 C.ar    1  LIG1       -0.2902
     26 C          16.6780    8.2480   10.1030 C.ar    1  LIG1       -0.1075
     27 C          17.0050    7.4130   11.1820 C.ar    1  LIG1       -0.1596
     28 H          18.0130    7.0100   11.2370 H       1  LIG1        0.0827
     29 CL         17.9140    8.5760    8.9360 Cl      1  LIG1        0.0595
     30 CL         14.9230    9.8200    8.6940 Cl      1  LIG1        0.0570
     31 C          12.4500    5.6920   15.0910 C.3     1  LIG1       -0.2127
     32 H          13.1830    6.3860   15.5070 H       1  LIG1        0.0403
     33 H          12.1010    5.0810   15.9290 H       1  LIG1        0.0768
     34 H          11.6380    6.3140   14.7040 H       1  LIG1        0.0681
     35 N          10.1300    1.0300   11.1490 N.pl3   1  LIG1       -0.8072
     36 H          10.6140    0.5100   10.4310 H       1  LIG1        0.3816
     37 H           9.1520    0.8600   11.3330 H       1  LIG1        0.3750
@<TRIPOS>BOND
     1     1     2   ar
     2     2     3   ar
     3     3     4   ar
     4     4     5   ar
     5     5     6   ar
     6     6     1   ar
     7     6     7    1
     8     7     8    1
     9     7     9    1
    10     5    10   ar
    11    10    11   ar
    12    11    12   ar
    13    12    13    1
    14    12    14   ar
    15    14     4   ar
    16    11    15    1
    17    15    16    1
    18    15    17    1
    19    15    18    1
    20    18    19    1
    21    18    20    1
    22    20    21   ar
    23    21    22    1
    24    21    23   ar
    25    23    24    1
    26    23    25   ar
    27    25    26   ar
    28    26    27   ar
    29    27    28    1
    30    27    20   ar
    31    26    29    1
    32    25    30    1
    33    10    31    1
    34    31    32    1
    35    31    33    1
    36    31    34    1
    37     2    35    1
    38    35    36    1
    39    35    37    1
