@<TRIPOS>MOLECULE
24_4c
 55 57 0 0 0
SMALL
USER_CHARGES
****
From 3DB ct
@<TRIPOS>ATOM
      1 N          10.1380    2.5730   12.8590 N.ar    1  LIG1       -0.7155
      2 C          10.8000    1.9210   11.9150 C.ar    1  LIG1        0.8102
      3 N          12.0620    2.1580   11.5960 N.ar    1  LIG1       -0.6999
      4 C          12.7090    3.1060   12.2540 C.ar    1  LIG1        0.8279
      5 C          12.1370    3.8850   13.2650 C.ar    1  LIG1       -0.8633
      6 C          10.7950    3.5330   13.5300 C.ar    1  LIG1        0.8220
      7 N          10.0220    4.1420   14.5080 N.pl3   1  LIG1       -0.7534
      8 H          10.3830    4.0590   15.4540 H       1  LIG1        0.3203
      9 H           9.7580    5.1040   14.3090 H       1  LIG1        0.3241
     10 C          12.9700    4.8990   13.8860 C.ar    1  LIG1        0.4821
     11 C          14.3300    4.9960   13.5220 C.ar    1  LIG1       -0.4039
     12 C          14.7470    4.1750   12.4870 C.ar    1  LIG1        0.4281
     13 H          15.7680    4.2240   12.1100 H       1  LIG1        0.0707
     14 N          13.9690    3.2600   11.8660 N.ar    1  LIG1       -0.5994
     15 C          15.3010    5.9840   14.1420 C.3     1  LIG1       -0.0298
     16 H          15.7130    5.5920   15.0790 H       1  LIG1        0.1090
     17 H          14.7280    6.8900   14.3790 H       1  LIG1        0.0826
     18 N          16.4460    6.2880   13.2600 N.pl3   1  LIG1       -0.3580
     19 C          16.1160    7.1010   12.1700 C.ar    1  LIG1        0.2700
     20 C          14.8250    7.6430   12.0880 C.ar    1  LIG1       -0.3777
     21 H          14.0950    7.4170   12.8620 H       1  LIG1        0.1542
     22 C          14.4570    8.4580   11.0130 C.ar    1  LIG1        0.3592
     23 C          15.3670    8.7170    9.9860 C.ar    1  LIG1       -0.1699
     24 C          16.6740    8.2330   10.0920 C.ar    1  LIG1        0.2657
     25 C          17.0410    7.4150   11.1640 C.ar    1  LIG1       -0.3569
     26 H          18.0580    7.0330   11.2120 H       1  LIG1        0.1707
     27 O          17.6090    8.4720    9.1170 O.3     1  LIG1       -0.2079
     28 C          18.8230    7.7760    9.4190 C.3     1  LIG1       -0.0697
     29 H          19.5120    7.9310    8.5830 H       1  LIG1        0.0844
     30 H          18.6480    6.6990    9.5200 H       1  LIG1        0.0598
     31 H          19.2940    8.1730   10.3240 H       1  LIG1        0.0573
     32 O          14.9970    9.4700    8.9020 O.3     1  LIG1       -0.2069
     33 C          16.1180    9.6480    8.0310 C.3     1  LIG1       -0.0262
     34 H          15.7780   10.2210    7.1630 H       1  LIG1        0.0480
     35 H          16.5010    8.6860    7.6730 H       1  LIG1        0.0659
     36 H          16.9150   10.2170    8.5220 H       1  LIG1        0.0524
     37 O          13.1600    8.9020   10.9770 O.3     1  LIG1       -0.3135
     38 C          12.9330    9.7170    9.8220 C.3     1  LIG1        0.1049
     39 H          11.9970   10.2620    9.9800 H       1  LIG1        0.0254
     40 H          12.8160    9.1020    8.9250 H       1  LIG1        0.0318
     41 H          13.7330   10.4530    9.6810 H       1  LIG1        0.0344
     42 C          17.5520    6.0180   13.4760 C.3     1  LIG1        0.1825
     43 H          17.5010    6.0590   14.5710 H       1  LIG1        0.0081
     44 H          17.9150    6.9990   13.1510 H       1  LIG1        0.0164
     45 C          18.5470    4.9290   13.1000 C.3     1  LIG1       -0.1452
     46 H          19.5110    5.1160   13.5850 H       1  LIG1        0.0379
     47 H          18.7170    4.8940   12.0200 H       1  LIG1        0.0339
     48 H          18.1900    3.9450   13.4180 H       1  LIG1        0.0404
     49 C          12.4000    5.8400   14.9200 C.3     1  LIG1       -0.2045
     50 H          12.2400    5.3140   15.8660 H       1  LIG1        0.0695
     51 H          11.4660    6.2820   14.5630 H       1  LIG1        0.0665
     52 H          13.0440    6.7000   15.1190 H       1  LIG1        0.0442
     53 N          10.1430    0.9420   11.2350 N.pl3   1  LIG1       -0.8120
     54 H          10.6240    0.4160   10.5210 H       1  LIG1        0.3790
     55 H           9.1840    0.7300   11.4680 H       1  LIG1        0.3742
@<TRIPOS>BOND
     1     1     2   ar
     2     2     3   ar
     3     3     4   ar
     4     4     5   ar
     5     5     6   ar
     6     6     1   ar
     7     6     7    1
     8     7     8    1
     9     7     9    1
    10     5    10   ar
    11    10    11   ar
    12    11    12   ar
    13    12    13    1
    14    12    14   ar
    15    14     4   ar
    16    11    15    1
    17    15    16    1
    18    15    17    1
    19    15    18    1
    20    18    19    1
    21    19    20   ar
    22    20    21    1
    23    20    22   ar
    24    22    23   ar
    25    23    24   ar
    26    24    25   ar
    27    25    26    1
    28    25    19   ar
    29    24    27    1
    30    27    28    1
    31    28    29    1
    32    28    30    1
    33    28    31    1
    34    23    32    1
    35    32    33    1
    36    33    34    1
    37    33    35    1
    38    33    36    1
    39    22    37    1
    40    37    38    1
    41    38    39    1
    42    38    40    1
    43    38    41    1
    44    18    42    1
    45    42    43    1
    46    42    44    1
    47    42    45    1
    48    45    46    1
    49    45    47    1
    50    45    48    1
    51    10    49    1
    52    49    50    1
    53    49    51    1
    54    49    52    1
    55     2    53    1
    56    53    54    1
    57    53    55    1
