@<TRIPOS>MOLECULE
24_5a
 43 46 0 0 0
SMALL
USER_CHARGES
****
From 3DB ct
@<TRIPOS>ATOM
      1 N          10.1290    2.6240   12.8160 N.ar    1  LIG1       -0.7163
      2 C          10.7930    1.9760   11.8710 C.ar    1  LIG1        0.8120
      3 N          12.0740    2.1690   11.5990 N.ar    1  LIG1       -0.7038
      4 C          12.7360    3.0740   12.2990 C.ar    1  LIG1        0.8396
      5 C          12.1620    3.8510   13.3120 C.ar    1  LIG1       -0.8765
      6 C          10.8000    3.5420   13.5300 C.ar    1  LIG1        0.8236
      7 N          10.0250    4.1500   14.5080 N.pl3   1  LIG1       -0.7527
      8 H          10.3420    3.9940   15.4620 H       1  LIG1        0.3197
      9 H           9.8360    5.1370   14.3540 H       1  LIG1        0.3224
     10 C          13.0080    4.8230   13.9770 C.ar    1  LIG1        0.4940
     11 C          14.3700    4.9020   13.6270 C.ar    1  LIG1       -0.4102
     12 C          14.8000    4.0720   12.6050 C.ar    1  LIG1        0.4018
     13 H          15.8330    4.0990   12.2610 H       1  LIG1        0.0838
     14 N          14.0140    3.1860   11.9540 N.ar    1  LIG1       -0.5929
     15 C          15.3770    5.8370   14.2560 C.3     1  LIG1        0.0220
     16 H          15.9000    5.3080   15.0640 H       1  LIG1        0.0834
     17 H          14.8650    6.6830   14.7280 H       1  LIG1        0.0796
     18 N          16.3320    6.2820   13.2560 N.pl3   1  LIG1       -0.5127
     19 H          17.2480    5.8450   13.2880 H       1  LIG1        0.3135
     20 C          16.0290    7.1240   12.1920 C.ar    1  LIG1        0.2105
     21 C          14.7390    7.6660   12.0500 C.ar    1  LIG1       -0.2158
     22 H          13.9430    7.4130   12.7470 H       1  LIG1        0.1161
     23 C          14.4200    8.5310   11.0050 C.ar    1  LIG1       -0.0476
     24 H          13.4090    8.9240   10.9150 H       1  LIG1        0.1078
     25 C          15.3920    8.8920   10.0810 C.ar    1  LIG1       -0.2763
     26 H          15.1200    9.5710    9.2740 H       1  LIG1        0.1328
     27 C          16.6960    8.3960   10.1910 C.ar    1  LIG1        0.1745
     28 C          17.0350    7.5080   11.2490 C.ar    1  LIG1       -0.0531
     29 C          18.3810    7.0630   11.3010 C.ar    1  LIG1       -0.1203
     30 H          18.7170    6.3930   12.0890 H       1  LIG1        0.0929
     31 C          19.3340    7.4610   10.3580 C.ar    1  LIG1       -0.1256
     32 H          20.3560    7.0960   10.4310 H       1  LIG1        0.1074
     33 C          18.9750    8.3230    9.3320 C.ar    1  LIG1       -0.0685
     34 H          19.7130    8.6370    8.5960 H       1  LIG1        0.1018
     35 C          17.6650    8.7890    9.2510 C.ar    1  LIG1       -0.2032
     36 H          17.4040    9.4700    8.4410 H       1  LIG1        0.1236
     37 C          12.4470    5.7450   15.0320 C.3     1  LIG1       -0.2119
     38 H          12.1490    5.1740   15.9160 H       1  LIG1        0.0725
     39 H          11.5980    6.3050   14.6300 H       1  LIG1        0.0630
     40 H          13.1560    6.5030   15.3690 H       1  LIG1        0.0464
     41 N          10.1170    1.0540   11.1330 N.pl3   1  LIG1       -0.8098
     42 H          10.5930    0.5580   10.3940 H       1  LIG1        0.3793
     43 H           9.1360    0.8960   11.3050 H       1  LIG1        0.3734
@<TRIPOS>BOND
     1     1     2   ar
     2     2     3   ar
     3     3     4   ar
     4     4     5   ar
     5     5     6   ar
     6     6     1   ar
     7     6     7    1
     8     7     8    1
     9     7     9    1
    10     5    10   ar
    11    10    11   ar
    12    11    12   ar
    13    12    13    1
    14    12    14   ar
    15    14     4   ar
    16    11    15    1
    17    15    16    1
    18    15    17    1
    19    15    18    1
    20    18    19    1
    21    18    20    1
    22    20    21   ar
    23    21    22    1
    24    21    23   ar
    25    23    24    1
    26    23    25   ar
    27    25    26    1
    28    25    27   ar
    29    27    28   ar
    30    28    20   ar
    31    28    29   ar
    32    29    30    1
    33    29    31   ar
    34    31    32    1
    35    31    33   ar
    36    33    34    1
    37    33    35   ar
    38    35    36    1
    39    35    27   ar
    40    10    37    1
    41    37    38    1
    42    37    39    1
    43    37    40    1
    44     2    41    1
    45    41    42    1
    46    41    43    1
