@<TRIPOS>MOLECULE
25_21
 42 44 0 0 0
SMALL
USER_CHARGES
****
From 3DB ct
@<TRIPOS>ATOM
      1 N          10.1990    2.7270   12.8440 N.ar    1  LIG1       -0.6666
      2 C          10.8190    2.0590   11.8750 C.ar    1  LIG1        0.7518
      3 N          12.1010    2.2070   11.5570 N.ar    1  LIG1       -0.6778
      4 C          12.8140    3.0880   12.2420 C.ar    1  LIG1        0.7495
      5 C          12.2720    3.8450   13.2750 C.ar    1  LIG1       -0.6259
      6 C          10.9270    3.5990   13.5520 C.ar    1  LIG1        0.7119
      7 N          10.2350    4.2880   14.5320 N.pl3   1  LIG1       -0.7422
      8 H          10.7070    4.4870   15.4080 H       1  LIG1        0.3323
      9 H           9.2580    4.0260   14.6340 H       1  LIG1        0.3188
     10 C          13.1010    4.7830   13.9470 C.ar    1  LIG1        0.0045
     11 H          12.6710    5.3810   14.7460 H       1  LIG1        0.0881
     12 C          14.4350    4.9440   13.5930 C.ar    1  LIG1        0.0634
     13 C          14.8640    4.1210   12.5580 C.ar    1  LIG1        0.2805
     14 H          15.8970    4.1660   12.2150 H       1  LIG1        0.0935
     15 N          14.0930    3.2210   11.8900 N.ar    1  LIG1       -0.5444
     16 N          15.3000    5.8180   14.2110 N.pl3   1  LIG1       -0.6251
     17 H          15.2490    5.9250   15.2230 H       1  LIG1        0.3431
     18 C          16.3930    6.5070   13.5430 C.3     1  LIG1        0.1472
     19 H          17.1540    5.7870   13.2150 H       1  LIG1        0.0465
     20 H          16.8920    7.1980   14.2320 H       1  LIG1        0.0514
     21 C          15.8730    7.2450   12.3270 C.ar    1  LIG1       -0.1172
     22 C          14.5120    7.6070   12.2860 C.ar    1  LIG1       -0.1697
     23 H          13.8630    7.3460   13.1220 H       1  LIG1        0.1449
     24 C          13.9740    8.2970   11.1980 C.ar    1  LIG1        0.2324
     25 C          14.8080    8.6380   10.1370 C.ar    1  LIG1       -0.1801
     26 H          14.4410    9.1740    9.2660 H       1  LIG1        0.1264
     27 C          16.1670    8.2960   10.1670 C.ar    1  LIG1       -0.2039
     28 H          16.7730    8.5910    9.3140 H       1  LIG1        0.1302
     29 C          16.7100    7.6050   11.2550 C.ar    1  LIG1        0.2060
     30 O          18.0250    7.2390   11.3630 O.3     1  LIG1       -0.2615
     31 C          18.8780    7.5180   10.2540 C.3     1  LIG1        0.0299
     32 H          19.8880    7.1940   10.5220 H       1  LIG1        0.0607
     33 H          18.9160    8.5920   10.0470 H       1  LIG1        0.0345
     34 H          18.5680    6.9510    9.3700 H       1  LIG1        0.0438
     35 O          12.6400    8.5750   11.2930 O.3     1  LIG1       -0.3026
     36 C          12.0510    9.2800   10.2000 C.3     1  LIG1        0.0805
     37 H          10.9900    9.4210   10.4280 H       1  LIG1        0.0518
     38 H          12.1200    8.6980    9.2750 H       1  LIG1        0.0275
     39 H          12.5020   10.2710   10.0830 H       1  LIG1        0.0211
     40 N          10.0890    1.1610   11.1590 N.pl3   1  LIG1       -0.7888
     41 H          10.5250    0.6360   10.4160 H       1  LIG1        0.3713
     42 H           9.1120    1.0240   11.3750 H       1  LIG1        0.3625
@<TRIPOS>BOND
     1     1     2   ar
     2     2     3   ar
     3     3     4   ar
     4     4     5   ar
     5     5     6   ar
     6     6     1   ar
     7     6     7    1
     8     7     8    1
     9     7     9    1
    10     5    10   ar
    11    10    11    1
    12    10    12   ar
    13    12    13   ar
    14    13    14    1
    15    13    15   ar
    16    15     4   ar
    17    12    16    1
    18    16    17    1
    19    16    18    1
    20    18    19    1
    21    18    20    1
    22    18    21    1
    23    21    22   ar
    24    22    23    1
    25    22    24   ar
    26    24    25   ar
    27    25    26    1
    28    25    27   ar
    29    27    28    1
    30    27    29   ar
    31    29    21   ar
    32    29    30    1
    33    30    31    1
    34    31    32    1
    35    31    33    1
    36    31    34    1
    37    24    35    1
    38    35    36    1
    39    36    37    1
    40    36    38    1
    41    36    39    1
    42     2    40    1
    43    40    41    1
    44    40    42    1
