@<TRIPOS>MOLECULE
27_14
 44 46 0 0 0
SMALL
USER_CHARGES
****
From 3DB ct
@<TRIPOS>ATOM
      1 N          10.1330    2.6130   12.8390 N.ar    1  LIG1       -0.7134
      2 C          10.7840    1.9680   11.8830 C.ar    1  LIG1        0.8084
      3 N          12.0600    2.1680   11.5890 N.ar    1  LIG1       -0.7032
      4 C          12.7280    3.0770   12.2780 C.ar    1  LIG1        0.8450
      5 C          12.1650    3.8560   13.2960 C.ar    1  LIG1       -0.8873
      6 C          10.8120    3.5330   13.5430 C.ar    1  LIG1        0.8221
      7 N          10.0470    4.1400   14.5280 N.pl3   1  LIG1       -0.7484
      8 H          10.4110    4.0550   15.4740 H       1  LIG1        0.3182
      9 H           9.7820    5.1010   14.3320 H       1  LIG1        0.3208
     10 C          13.0180    4.8380   13.9410 C.ar    1  LIG1        0.5290
     11 C          14.3870    4.8830   13.6120 C.ar    1  LIG1       -0.4419
     12 C          14.7980    4.0650   12.5710 C.ar    1  LIG1        0.4199
     13 H          15.8290    4.0810   12.2200 H       1  LIG1        0.0756
     14 N          13.9990    3.1940   11.9140 N.ar    1  LIG1       -0.6002
     15 C          15.4040    5.8070   14.2630 C.3     1  LIG1       -0.0791
     16 H          15.9820    5.2940   15.0370 H       1  LIG1        0.1144
     17 H          14.8220    6.5940   14.7520 H       1  LIG1        0.0770
     18 N          16.3820    6.3320   13.2920 N.pl3   1  LIG1       -0.1984
     19 C          16.0230    7.1280   12.2130 C.ar    1  LIG1        0.1132
     20 C          16.9430    7.4440   11.2000 C.ar    1  LIG1       -0.1717
     21 H          17.9600    7.0550   11.2300 H       1  LIG1        0.1152
     22 C          16.5980    8.2460   10.1030 C.ar    1  LIG1       -0.1982
     23 H          17.3490    8.4570    9.3420 H       1  LIG1        0.1219
     24 C          15.3150    8.7720    9.9830 C.ar    1  LIG1        0.2820
     25 C          14.3830    8.4800   10.9720 C.ar    1  LIG1       -0.2548
     26 H          13.3680    8.8670   10.9380 H       1  LIG1        0.1456
     27 C          14.7370    7.6700   12.0650 C.ar    1  LIG1       -0.0996
     28 H          13.9690    7.5100   12.8190 H       1  LIG1        0.1043
     29 O          15.1050    9.5440    8.8760 O.3     1  LIG1       -0.3063
     30 C          16.1890    9.6520    7.9550 C.3     1  LIG1        0.0568
     31 H          15.8620   10.2910    7.1290 H       1  LIG1        0.0565
     32 H          16.4500    8.6750    7.5370 H       1  LIG1        0.0276
     33 H          17.0570   10.1300    8.4210 H       1  LIG1        0.0248
     34 C          17.8030    6.2040   13.6380 C.3     1  LIG1       -0.0495
     35 H          18.2970    7.1820   13.6390 H       1  LIG1        0.0408
     36 H          18.3170    5.5390   12.9360 H       1  LIG1        0.0564
     37 H          17.9340    5.7840   14.6420 H       1  LIG1        0.0648
     38 C          12.4540    5.7980   14.9600 C.3     1  LIG1       -0.2315
     39 H          12.3170    5.2960   15.9220 H       1  LIG1        0.0734
     40 H          11.5110    6.2250   14.6130 H       1  LIG1        0.0705
     41 H          13.0920    6.6710   15.1150 H       1  LIG1        0.0564
     42 N          10.1020    1.0380   11.1640 N.pl3   1  LIG1       -0.8054
     43 H          10.5730    0.5240   10.4340 H       1  LIG1        0.3778
     44 H           9.1320    0.8560   11.3750 H       1  LIG1        0.3709
@<TRIPOS>BOND
     1     1     2   ar
     2     2     3   ar
     3     3     4   ar
     4     4     5   ar
     5     5     6   ar
     6     6     1   ar
     7     6     7    1
     8     7     8    1
     9     7     9    1
    10     5    10   ar
    11    10    11   ar
    12    11    12   ar
    13    12    13    1
    14    12    14   ar
    15    14     4   ar
    16    11    15    1
    17    15    16    1
    18    15    17    1
    19    15    18    1
    20    18    19    1
    21    19    20   ar
    22    20    21    1
    23    20    22   ar
    24    22    23    1
    25    22    24   ar
    26    24    25   ar
    27    25    26    1
    28    25    27   ar
    29    27    28    1
    30    27    19   ar
    31    24    29    1
    32    29    30    1
    33    30    31    1
    34    30    32    1
    35    30    33    1
    36    18    34    1
    37    34    35    1
    38    34    36    1
    39    34    37    1
    40    10    38    1
    41    38    39    1
    42    38    40    1
    43    38    41    1
    44     2    42    1
    45    42    43    1
    46    42    44    1
