@<TRIPOS>MOLECULE
27_11
 37 39 0 0 0
SMALL
USER_CHARGES
****
From 3DB ct
@<TRIPOS>ATOM
      1 N          10.1120    2.6670   12.7720 N.ar    1  LIG1       -0.7103
      2 C          10.7880    1.9860   11.8600 C.ar    1  LIG1        0.8049
      3 N          12.0780    2.1530   11.6140 N.ar    1  LIG1       -0.7013
      4 C          12.7420    3.0470   12.3270 C.ar    1  LIG1        0.8348
      5 C          12.1680    3.8240   13.3400 C.ar    1  LIG1       -0.8492
      6 C          10.7840    3.5790   13.4930 C.ar    1  LIG1        0.8119
      7 N           9.9850    4.2490   14.4070 N.pl3   1  LIG1       -0.7511
      8 H          10.1440    3.9990   15.3800 H       1  LIG1        0.3211
      9 H           9.9590    5.2590   14.2960 H       1  LIG1        0.3223
     10 C          13.0340    4.7470   14.0550 C.ar    1  LIG1        0.4713
     11 C          14.3690    4.9060   13.6330 C.ar    1  LIG1       -0.4366
     12 C          14.8020    4.0520   12.6300 C.ar    1  LIG1        0.3913
     13 H          15.8360    4.0750   12.2860 H       1  LIG1        0.0865
     14 N          14.0240    3.1450   11.9970 N.ar    1  LIG1       -0.5899
     15 C          15.3640    5.8750   14.2400 C.3     1  LIG1        0.2036
     16 H          15.8730    5.3510   15.0580 H       1  LIG1        0.0521
     17 H          14.8720    6.7610   14.6460 H       1  LIG1        0.0470
     18 N          16.3180    6.3410   13.2410 N.pl3   1  LIG1       -0.7252
     19 H          17.2060    5.8420   13.1940 H       1  LIG1        0.3597
     20 C          15.9820    7.1280   12.1560 C.ar    1  LIG1        0.5016
     21 C          16.9700    7.4200   11.2040 C.ar    1  LIG1       -0.4159
     22 H          17.9710    7.0030   11.3110 H       1  LIG1        0.1402
     23 C          16.7060    8.2430   10.1020 C.ar    1  LIG1        0.2518
     24 H          17.4950    8.4430    9.3820 H       1  LIG1        0.0500
     25 C          15.4420    8.7990    9.9460 C.ar    1  LIG1       -0.5120
     26 C          14.4480    8.5400   10.8830 C.ar    1  LIG1        0.2260
     27 H          13.4570    8.9730   10.7740 H       1  LIG1        0.0516
     28 C          14.7220    7.7150   11.9830 C.ar    1  LIG1       -0.3579
     29 H          13.9180    7.5410   12.6940 H       1  LIG1        0.1323
     30 CL         15.1090    9.8130    8.5970 Cl      1  LIG1        0.0703
     31 C          12.5110    5.5360   15.2300 C.3     1  LIG1       -0.2148
     32 H          11.9430    4.8930   15.9060 H       1  LIG1        0.0759
     33 H          11.8940    6.3700   14.8850 H       1  LIG1        0.0683
     34 H          13.3050    5.9360   15.8640 H       1  LIG1        0.0415
     35 N          10.1130    1.0590   11.1270 N.pl3   1  LIG1       -0.8036
     36 H          10.5990    0.5240   10.4210 H       1  LIG1        0.3790
     37 H           9.1280    0.9130   11.2900 H       1  LIG1        0.3726
@<TRIPOS>BOND
     1     1     2   ar
     2     2     3   ar
     3     3     4   ar
     4     4     5   ar
     5     5     6   ar
     6     6     1   ar
     7     6     7    1
     8     7     8    1
     9     7     9    1
    10     5    10   ar
    11    10    11   ar
    12    11    12   ar
    13    12    13    1
    14    12    14   ar
    15    14     4   ar
    16    11    15    1
    17    15    16    1
    18    15    17    1
    19    15    18    1
    20    18    19    1
    21    18    20    1
    22    20    21   ar
    23    21    22    1
    24    21    23   ar
    25    23    24    1
    26    23    25   ar
    27    25    26   ar
    28    26    27    1
    29    26    28   ar
    30    28    29    1
    31    28    20   ar
    32    25    30    1
    33    10    31    1
    34    31    32    1
    35    31    33    1
    36    31    34    1
    37     2    35    1
    38    35    36    1
    39    35    37    1
