@<TRIPOS>MOLECULE
28_10
 43 45 0 0 0
SMALL
USER_CHARGES
****
From 3DB ct
@<TRIPOS>ATOM
      1 N          10.1490    2.5990   12.8890 N.ar    1  LIG1       -0.6819
      2 C          10.7740    1.9550   11.9060 C.ar    1  LIG1        0.7798
      3 N          12.0380    2.1640   11.5490 N.ar    1  LIG1       -0.6984
      4 C          12.7330    3.0680   12.2230 C.ar    1  LIG1        0.8204
      5 C          12.1840    3.8010   13.2710 C.ar    1  LIG1       -0.7293
      6 C          10.8440    3.5290   13.5530 C.ar    1  LIG1        0.7503
      7 N          10.1620    4.1540   14.5820 N.pl3   1  LIG1       -0.7613
      8 H          10.3330    5.1410   14.7470 H       1  LIG1        0.3405
      9 H           9.1920    3.8720   14.6900 H       1  LIG1        0.3272
     10 C          13.0010    4.7350   13.9520 C.ar    1  LIG1        0.2153
     11 H          12.5980    5.3090   14.7840 H       1  LIG1        0.0727
     12 C          14.3230    4.9220   13.5620 C.ar    1  LIG1       -0.2723
     13 C          14.7710    4.1470   12.5060 C.ar    1  LIG1        0.3801
     14 H          15.7940    4.2310   12.1440 H       1  LIG1        0.0772
     15 N          14.0040    3.2420   11.8480 N.ar    1  LIG1       -0.5927
     16 C          15.2260    5.9000   14.2630 C.3     1  LIG1       -0.1247
     17 H          15.5460    5.4800   15.2250 H       1  LIG1        0.0538
     18 H          14.6500    6.8010   14.5120 H       1  LIG1        0.0658
     19 C          16.4500    6.2620   13.4160 C.3     1  LIG1       -0.0195
     20 H          17.0760    6.7370   13.9500 H       1  LIG1        0.0370
     21 H          16.8560    5.4640   13.1000 H       1  LIG1        0.0399
     22 C          16.0800    7.1290   12.2350 C.ar    1  LIG1       -0.0167
     23 C          14.7830    7.6350   12.1100 C.ar    1  LIG1       -0.1007
     24 H          14.0240    7.3950   12.8550 H       1  LIG1        0.1190
     25 C          14.4410    8.4550   11.0320 C.ar    1  LIG1       -0.1988
     26 H          13.4190    8.8210   10.9840 H       1  LIG1        0.1392
     27 C          15.3930    8.7790   10.0600 C.ar    1  LIG1        0.1697
     28 C          16.7010    8.2680   10.1730 C.ar    1  LIG1        0.1624
     29 C          17.0370    7.4550   11.2620 C.ar    1  LIG1       -0.2569
     30 H          18.0430    7.0580   11.3800 H       1  LIG1        0.1436
     31 O          17.5710    8.6240    9.1710 O.3     1  LIG1       -0.2125
     32 C          18.9040    8.1240    9.2540 C.3     1  LIG1       -0.0683
     33 H          19.4390    8.4540    8.3580 H       1  LIG1        0.0804
     34 H          18.9170    7.0290    9.2650 H       1  LIG1        0.0633
     35 H          19.4220    8.5390   10.1250 H       1  LIG1        0.0620
     36 O          15.1490    9.5760    8.9690 O.3     1  LIG1       -0.2993
     37 C          16.2350    9.8050    8.0740 C.3     1  LIG1        0.1166
     38 H          15.8640   10.4250    7.2530 H       1  LIG1        0.0334
     39 H          16.5970    8.8650    7.6430 H       1  LIG1        0.0184
     40 H          17.0430   10.3540    8.5690 H       1  LIG1        0.0107
     41 N          10.0680    1.0170   11.2180 N.pl3   1  LIG1       -0.7847
     42 H          10.5080    0.5030   10.4690 H       1  LIG1        0.3748
     43 H           9.1070    0.8330   11.4680 H       1  LIG1        0.3644
@<TRIPOS>BOND
     1     1     2   ar
     2     2     3   ar
     3     3     4   ar
     4     4     5   ar
     5     5     6   ar
     6     6     1   ar
     7     6     7    1
     8     7     8    1
     9     7     9    1
    10     5    10   ar
    11    10    11    1
    12    10    12   ar
    13    12    13   ar
    14    13    14    1
    15    13    15   ar
    16    15     4   ar
    17    12    16    1
    18    16    17    1
    19    16    18    1
    20    16    19    1
    21    19    20    1
    22    19    21    1
    23    19    22    1
    24    22    23   ar
    25    23    24    1
    26    23    25   ar
    27    25    26    1
    28    25    27   ar
    29    27    28   ar
    30    28    29   ar
    31    29    30    1
    32    29    22   ar
    33    28    31    1
    34    31    32    1
    35    32    33    1
    36    32    34    1
    37    32    35    1
    38    27    36    1
    39    36    37    1
    40    37    38    1
    41    37    39    1
    42    37    40    1
    43     2    41    1
    44    41    42    1
    45    41    43    1
