@<TRIPOS>MOLECULE
28_3
 49 51 0 0 0
SMALL
USER_CHARGES
****
From 3DB ct
@<TRIPOS>ATOM
      1 N          10.1580    2.6430   12.8930 N.ar    1  LIG1       -0.7012
      2 C          10.7610    1.9950   11.9000 C.ar    1  LIG1        0.8161
      3 N          12.0330    2.1630   11.5500 N.ar    1  LIG1       -0.7143
      4 C          12.7550    3.0400   12.2320 C.ar    1  LIG1        0.8339
      5 C          12.2330    3.7710   13.2960 C.ar    1  LIG1       -0.7767
      6 C          10.8950    3.5100   13.5990 C.ar    1  LIG1        0.7760
      7 N          10.2180    4.1800   14.6020 N.pl3   1  LIG1       -0.7608
      8 H          10.7090    4.3880   15.4650 H       1  LIG1        0.3337
      9 H           9.2470    3.9070   14.7250 H       1  LIG1        0.3308
     10 C          13.0750    4.6920   13.9680 C.ar    1  LIG1        0.2524
     11 H          12.6900    5.2750   14.8020 H       1  LIG1        0.0829
     12 C          14.3990    4.8600   13.5640 C.ar    1  LIG1       -0.2439
     13 C          14.8160    4.0770   12.5020 C.ar    1  LIG1        0.3737
     14 H          15.8380    4.1340   12.1290 H       1  LIG1        0.0696
     15 N          14.0240    3.1910   11.8440 N.ar    1  LIG1       -0.5845
     16 C          15.3570    5.7940   14.2640 C.3     1  LIG1       -0.2242
     17 H          15.8950    5.2540   15.0540 H       1  LIG1        0.1143
     18 H          14.7670    6.5480   14.7910 H       1  LIG1        0.1241
     19 N          16.3520    6.3550   13.3330 N.pl3   1  LIG1       -0.0844
     20 C          16.0110    7.1310   12.2300 C.ar    1  LIG1        0.2138
     21 C          16.9460    7.4250   11.2210 C.ar    1  LIG1       -0.3818
     22 H          17.9600    7.0350   11.2690 H       1  LIG1        0.1384
     23 C          16.6080    8.2010   10.1080 C.ar    1  LIG1        0.3140
     24 C          15.3360    8.7580    9.9970 C.ar    1  LIG1       -0.2127
     25 C          14.3700    8.4800   10.9670 C.ar    1  LIG1        0.4531
     26 C          14.7210    7.6810   12.0690 C.ar    1  LIG1       -0.4322
     27 H          13.9810    7.5150   12.8450 H       1  LIG1        0.1402
     28 O          13.1340    9.0400   10.7590 O.3     1  LIG1       -0.3082
     29 C          12.9660    9.8480    9.5980 C.3     1  LIG1        0.0594
     30 H          11.9480   10.2480    9.6160 H       1  LIG1        0.0428
     31 H          13.0720    9.2500    8.6870 H       1  LIG1        0.0441
     32 H          13.6590   10.6950    9.6020 H       1  LIG1        0.0461
     33 O          15.0160    9.5260    8.9030 O.3     1  LIG1       -0.2361
     34 C          16.1490    9.6300    8.0330 C.3     1  LIG1        0.0169
     35 H          15.8530   10.2380    7.1720 H       1  LIG1        0.0377
     36 H          16.4580    8.6470    7.6620 H       1  LIG1        0.0497
     37 H          16.9860   10.1320    8.5310 H       1  LIG1        0.0422
     38 O          17.5800    8.4550    9.1740 O.3     1  LIG1       -0.2199
     39 C          18.7730    7.7340    9.5020 C.3     1  LIG1       -0.0312
     40 H          19.5330    7.9950    8.7590 H       1  LIG1        0.0735
     41 H          18.6090    6.6530    9.4540 H       1  LIG1        0.0497
     42 H          19.1510    8.0210   10.4900 H       1  LIG1        0.0525
     43 C          17.7300    5.8780   13.5050 C.3     1  LIG1       -0.1152
     44 H          18.4510    6.6910   13.3630 H       1  LIG1        0.0548
     45 H          17.9510    5.0670   12.8030 H       1  LIG1        0.0648
     46 H          17.8900    5.4920   14.5190 H       1  LIG1        0.0815
     47 N          10.0280    1.0950   11.1900 N.pl3   1  LIG1       -0.8095
     48 H          10.4590    0.5780   10.4380 H       1  LIG1        0.3820
     49 H           9.0630    0.9270   11.4360 H       1  LIG1        0.3719
@<TRIPOS>BOND
     1     1     2   ar
     2     2     3   ar
     3     3     4   ar
     4     4     5   ar
     5     5     6   ar
     6     6     1   ar
     7     6     7    1
     8     7     8    1
     9     7     9    1
    10     5    10   ar
    11    10    11    1
    12    10    12   ar
    13    12    13   ar
    14    13    14    1
    15    13    15   ar
    16    15     4   ar
    17    12    16    1
    18    16    17    1
    19    16    18    1
    20    16    19    1
    21    19    20    1
    22    20    21   ar
    23    21    22    1
    24    21    23   ar
    25    23    24   ar
    26    24    25   ar
    27    25    26   ar
    28    26    27    1
    29    26    20   ar
    30    25    28    1
    31    28    29    1
    32    29    30    1
    33    29    31    1
    34    29    32    1
    35    24    33    1
    36    33    34    1
    37    34    35    1
    38    34    36    1
    39    34    37    1
    40    23    38    1
    41    38    39    1
    42    39    40    1
    43    39    41    1
    44    39    42    1
    45    19    43    1
    46    43    44    1
    47    43    45    1
    48    43    46    1
    49     2    47    1
    50    47    48    1
    51    47    49    1
