@<TRIPOS>MOLECULE
28_4
 52 54 0 0 0
SMALL
USER_CHARGES
****
From 3DB ct
@<TRIPOS>ATOM
      1 N          10.1600    2.6420   12.8950 N.ar    1  LIG1       -0.6994
      2 C          10.7640    1.9960   11.9000 C.ar    1  LIG1        0.8090
      3 N          12.0370    2.1590   11.5530 N.ar    1  LIG1       -0.7065
      4 C          12.7600    3.0360   12.2340 C.ar    1  LIG1        0.8235
      5 C          12.2330    3.7720   13.2920 C.ar    1  LIG1       -0.7670
      6 C          10.8970    3.5090   13.5990 C.ar    1  LIG1        0.7733
      7 N          10.2240    4.1780   14.6060 N.pl3   1  LIG1       -0.7558
      8 H          10.7180    4.3800   15.4680 H       1  LIG1        0.3321
      9 H           9.2530    3.9040   14.7290 H       1  LIG1        0.3284
     10 C          13.0680    4.7050   13.9540 C.ar    1  LIG1        0.2297
     11 H          12.6810    5.3010   14.7780 H       1  LIG1        0.0850
     12 C          14.3900    4.8760   13.5480 C.ar    1  LIG1       -0.2175
     13 C          14.8180    4.0820   12.4990 C.ar    1  LIG1        0.3920
     14 H          15.8410    4.1420   12.1300 H       1  LIG1        0.0695
     15 N          14.0310    3.1860   11.8500 N.ar    1  LIG1       -0.5924
     16 C          15.3250    5.8400   14.2350 C.3     1  LIG1       -0.2352
     17 H          15.8000    5.3720   15.1070 H       1  LIG1        0.1282
     18 H          14.6920    6.6540   14.6100 H       1  LIG1        0.1200
     19 N          16.3680    6.3470   13.3240 N.pl3   1  LIG1       -0.2253
     20 C          16.0130    7.1310   12.2250 C.ar    1  LIG1        0.2432
     21 C          16.9510    7.4160   11.2210 C.ar    1  LIG1       -0.3971
     22 H          17.9570    7.0040   11.2740 H       1  LIG1        0.1681
     23 C          16.6120    8.1940   10.1130 C.ar    1  LIG1        0.3447
     24 C          15.3390    8.7540   10.0080 C.ar    1  LIG1       -0.2539
     25 C          14.3680    8.4700   10.9760 C.ar    1  LIG1        0.4212
     26 C          14.7170    7.6680   12.0730 C.ar    1  LIG1       -0.3879
     27 H          13.9840    7.4780   12.8510 H       1  LIG1        0.1470
     28 O          13.1330    9.0310   10.7690 O.3     1  LIG1       -0.3243
     29 C          12.9670    9.8410    9.6080 C.3     1  LIG1        0.1098
     30 H          11.9460   10.2330    9.6190 H       1  LIG1        0.0272
     31 H          13.0860    9.2480    8.6950 H       1  LIG1        0.0318
     32 H          13.6530   10.6950    9.6210 H       1  LIG1        0.0326
     33 O          15.0150    9.5280    8.9190 O.3     1  LIG1       -0.1893
     34 C          16.1420    9.6260    8.0410 C.3     1  LIG1       -0.0375
     35 H          15.8670   10.2960    7.2210 H       1  LIG1        0.0480
     36 H          16.3940    8.6500    7.6120 H       1  LIG1        0.0696
     37 H          17.0110   10.0530    8.5540 H       1  LIG1        0.0580
     38 O          17.5780    8.4470    9.1710 O.3     1  LIG1       -0.2335
     39 C          18.7770    7.7360    9.5000 C.3     1  LIG1       -0.0533
     40 H          19.5300    7.9890    8.7480 H       1  LIG1        0.0814
     41 H          18.6160    6.6520    9.4690 H       1  LIG1        0.0562
     42 H          19.1600    8.0370   10.4810 H       1  LIG1        0.0538
     43 C          17.7460    6.4620   13.8410 C.3     1  LIG1        0.1146
     44 H          17.7800    6.3190   14.9260 H       1  LIG1        0.0254
     45 H          18.1350    7.4710   13.6720 H       1  LIG1        0.0264
     46 C          18.6800    5.4670   13.1630 C.3     1  LIG1       -0.0976
     47 H          19.7000    5.5930   13.5380 H       1  LIG1        0.0282
     48 H          18.6960    5.6150   12.0780 H       1  LIG1        0.0242
     49 H          18.3750    4.4340   13.3570 H       1  LIG1        0.0260
     50 N          10.0240    1.1050   11.1850 N.pl3   1  LIG1       -0.8057
     51 H          10.4450    0.6020   10.4180 H       1  LIG1        0.3797
     52 H           9.0500    0.9670   11.4140 H       1  LIG1        0.3714
@<TRIPOS>BOND
     1     1     2   ar
     2     2     3   ar
     3     3     4   ar
     4     4     5   ar
     5     5     6   ar
     6     6     1   ar
     7     6     7    1
     8     7     8    1
     9     7     9    1
    10     5    10   ar
    11    10    11    1
    12    10    12   ar
    13    12    13   ar
    14    13    14    1
    15    13    15   ar
    16    15     4   ar
    17    12    16    1
    18    16    17    1
    19    16    18    1
    20    16    19    1
    21    19    20    1
    22    20    21   ar
    23    21    22    1
    24    21    23   ar
    25    23    24   ar
    26    24    25   ar
    27    25    26   ar
    28    26    27    1
    29    26    20   ar
    30    25    28    1
    31    28    29    1
    32    29    30    1
    33    29    31    1
    34    29    32    1
    35    24    33    1
    36    33    34    1
    37    34    35    1
    38    34    36    1
    39    34    37    1
    40    23    38    1
    41    38    39    1
    42    39    40    1
    43    39    41    1
    44    39    42    1
    45    19    43    1
    46    43    44    1
    47    43    45    1
    48    43    46    1
    49    46    47    1
    50    46    48    1
    51    46    49    1
    52     2    50    1
    53    50    51    1
    54    50    52    1
