@<TRIPOS>MOLECULE
32_9
 48 50 0 0 0
SMALL
USER_CHARGES
****
From 3DB ct
@<TRIPOS>ATOM
      1 C          12.4010    3.9580   12.9870 C.ar    1  LIG1       -0.6534
      2 C          11.0840    3.7940   13.5830 C.ar    1  LIG1        0.7646
      3 N          10.2390    2.8370   13.1810 N.ar    1  LIG1       -0.6956
      4 C          10.6060    1.9280   12.2470 C.ar    1  LIG1        0.7842
      5 N          11.9070    1.8940   11.7840 N.ar    1  LIG1       -0.6673
      6 C          12.7880    2.8900   12.2110 C.ar    1  LIG1        0.5166
      7 C          14.2250    2.6740   11.7630 C.3     1  LIG1       -0.1354
      8 H          14.4410    1.5930   11.7640 H       1  LIG1        0.0570
      9 H          14.3500    3.0120   10.7190 H       1  LIG1        0.0718
     10 C          15.1710    3.4520   12.6860 C.3     1  LIG1        0.0826
     11 H          16.2010    3.3980   12.2950 H       1  LIG1        0.0460
     12 H          15.1910    3.0050   13.6960 H       1  LIG1        0.0291
     13 N          14.6660    4.9120   12.7410 N.3     1  LIG1       -0.3384
     14 C          13.3340    5.0670   13.5180 C.3     1  LIG1        0.2590
     15 H          13.5070    4.8860   14.5950 H       1  LIG1        0.0183
     16 H          12.9560    5.9270   13.3740 H       1  LIG1        0.0215
     17 C          15.7500    5.9080   13.1780 C.3     1  LIG1       -0.1959
     18 H          15.5670    6.3650   14.1650 H       1  LIG1        0.1017
     19 H          16.7850    5.5610   13.3140 H       1  LIG1        0.0771
     20 C          15.6400    7.0030   12.0830 C.ar    1  LIG1        0.2373
     21 C          16.8000    7.4570   11.4800 C.ar    1  LIG1       -0.3634
     22 H          17.6320    7.0430   11.6780 H       1  LIG1        0.1510
     23 C          16.7110    8.5190   10.5940 C.ar    1  LIG1        0.3336
     24 C          15.4850    9.1280   10.3320 C.ar    1  LIG1       -0.2339
     25 C          14.3730    8.6590   10.9840 C.ar    1  LIG1        0.4072
     26 O          13.0340    9.1200   10.8680 O.3     1  LIG1       -0.3145
     27 C          13.0210   10.0030    9.7340 C.3     1  LIG1        0.0700
     28 H          12.1430   10.3430    9.6070 H       1  LIG1        0.0399
     29 H          13.6210   10.7230    9.8860 H       1  LIG1        0.0428
     30 H          13.2900    9.5250    8.9580 H       1  LIG1        0.0378
     31 C          14.4370    7.6050   11.8590 C.ar    1  LIG1       -0.4033
     32 H          13.6590    7.2930   12.3060 H       1  LIG1        0.1901
     33 O          15.4160   10.1130    9.4870 O.3     1  LIG1       -0.1843
     34 C          16.5840   10.5810    8.8230 C.3     1  LIG1       -0.0528
     35 H          17.4500    9.9940    9.1300 H       1  LIG1        0.0674
     36 H          16.4480   10.4870    7.7450 H       1  LIG1        0.0572
     37 H          16.7480   11.6280    9.0760 H       1  LIG1        0.0610
     38 O          17.7780    8.9580    9.9970 O.3     1  LIG1       -0.2288
     39 C          19.0440    8.3590   10.2430 C.3     1  LIG1       -0.0445
     40 H          18.9390    7.5370   10.9510 H       1  LIG1        0.0507
     41 H          19.4520    7.9790    9.3060 H       1  LIG1        0.0788
     42 H          19.7240    9.1050   10.6550 H       1  LIG1        0.0543
     43 N           9.7670    1.0600   11.8040 N.pl3   1  LIG1       -0.8036
     44 H           8.9220    1.0520   12.1140 H       1  LIG1        0.3681
     45 H          10.0250    0.4620   11.1830 H       1  LIG1        0.3735
     46 N          10.6020    4.5990   14.5690 N.pl3   1  LIG1       -0.8331
     47 H          11.1060    5.2740   14.8850 H       1  LIG1        0.3525
     48 H           9.7800    4.4550   14.9060 H       1  LIG1        0.3454
@<TRIPOS>BOND
     1     1     2   ar
     2     2     3   ar
     3     3     4   ar
     4     4     5   ar
     5     5     6   ar
     6     6     1   ar
     7     6     7    1
     8     7     8    1
     9     7     9    1
    10     7    10    1
    11    10    11    1
    12    10    12    1
    13    10    13    1
    14    13    14    1
    15    14    15    1
    16    14    16    1
    17    14     1    1
    18    13    17    1
    19    17    18    1
    20    17    19    1
    21    17    20    1
    22    20    21   ar
    23    21    22    1
    24    21    23   ar
    25    23    24   ar
    26    24    25   ar
    27    25    26    1
    28    26    27    1
    29    27    28    1
    30    27    29    1
    31    27    30    1
    32    25    31   ar
    33    31    32    1
    34    31    20   ar
    35    24    33    1
    36    33    34    1
    37    34    35    1
    38    34    36    1
    39    34    37    1
    40    23    38    1
    41    38    39    1
    42    39    40    1
    43    39    41    1
    44    39    42    1
    45     4    43    1
    46    43    44    1
    47    43    45    1
    48     2    46    1
    49    46    47    1
    50    46    48    1
