@<TRIPOS>MOLECULE
35_4
 42 45 0 0 0
SMALL
USER_CHARGES
****
From 3DB ct
@<TRIPOS>ATOM
      1 N          10.4940    2.7780   13.2590 N.ar    1  LIG1       -0.7178
      2 C          10.7430    1.9730   12.2150 C.ar    1  LIG1        0.8209
      3 N          11.8420    1.9900   11.4570 N.ar    1  LIG1       -0.6607
      4 C          12.7290    2.9180   11.8440 C.ar    1  LIG1        0.4173
      5 C          12.6000    3.8030   12.9050 C.ar    1  LIG1       -0.5511
      6 C          11.4010    3.7120   13.6290 C.ar    1  LIG1        0.7791
      7 N          11.0660    4.5100   14.6930 N.pl3   1  LIG1       -0.7801
      8 H          11.6400    5.2720   15.0230 H       1  LIG1        0.3307
      9 H          10.1670    4.3690   15.1380 H       1  LIG1        0.3285
     10 C          13.8020    4.5930   12.9400 C.ar    1  LIG1        0.0699
     11 C          14.5820    4.1660   11.8750 C.ar    1  LIG1       -0.1225
     12 H          15.5530    4.4980   11.5260 H       1  LIG1        0.2047
     13 N          13.9300    3.1470   11.2320 N.ar    1  LIG1       -0.3152
     14 H          14.2700    2.6420   10.4230 H       1  LIG1        0.3128
     15 C          14.1280    5.6880   13.9230 C.3     1  LIG1       -0.1129
     16 H          14.2820    5.2420   14.9130 H       1  LIG1        0.1027
     17 H          13.2270    6.3140   13.9870 H       1  LIG1        0.0835
     18 N          15.2960    6.5360   13.6130 N.pl3   1  LIG1       -0.2994
     19 C          15.3020    7.1960   12.3700 C.ar    1  LIG1        0.1614
     20 C          14.0920    7.4890   11.7170 C.ar    1  LIG1       -0.1623
     21 H          13.1410    7.2040   12.1630 H       1  LIG1        0.1141
     22 C          14.0760    8.1670   10.5010 C.ar    1  LIG1       -0.0872
     23 H          13.1290    8.3870   10.0120 H       1  LIG1        0.1103
     24 C          15.2730    8.5700    9.9140 C.ar    1  LIG1       -0.2303
     25 H          15.2370    9.1010    8.9630 H       1  LIG1        0.1334
     26 C          16.5010    8.2990   10.5320 C.ar    1  LIG1        0.1534
     27 C          16.5290    7.6070   11.7710 C.ar    1  LIG1       -0.0472
     28 C          17.7940    7.3440   12.3460 C.ar    1  LIG1       -0.0602
     29 H          17.8620    6.8020   13.2890 H       1  LIG1        0.0881
     30 C          18.9800    7.7560   11.7330 C.ar    1  LIG1       -0.1498
     31 H          19.9380    7.5400   12.2030 H       1  LIG1        0.1108
     32 C          18.9330    8.4400   10.5260 C.ar    1  LIG1       -0.0557
     33 H          19.8540    8.7640   10.0440 H       1  LIG1        0.0974
     34 C          17.7020    8.7090    9.9290 C.ar    1  LIG1       -0.2159
     35 H          17.6880    9.2430    8.9790 H       1  LIG1        0.1244
     36 C          16.3010    6.6530   14.5070 C.3     1  LIG1       -0.0056
     37 H          16.0140    6.1730   15.4430 H       1  LIG1        0.0174
     38 H          17.1970    6.1730   14.1120 H       1  LIG1        0.0490
     39 H          16.5050    7.7080   14.6880 H       1  LIG1        0.0505
     40 N           9.7840    1.0570   11.8990 N.pl3   1  LIG1       -0.8471
     41 H           9.9270    0.4330   11.1190 H       1  LIG1        0.3807
     42 H           8.9370    1.0150   12.4440 H       1  LIG1        0.3803
@<TRIPOS>BOND
     1     1     2   ar
     2     2     3   ar
     3     3     4   ar
     4     4     5   ar
     5     5     6   ar
     6     6     1   ar
     7     6     7    1
     8     7     8    1
     9     7     9    1
    10     5    10   ar
    11    10    11   ar
    12    11    12    1
    13    11    13   ar
    14    13    14    1
    15    13     4   ar
    16    10    15    1
    17    15    16    1
    18    15    17    1
    19    15    18    1
    20    18    19    1
    21    19    20   ar
    22    20    21    1
    23    20    22   ar
    24    22    23    1
    25    22    24   ar
    26    24    25    1
    27    24    26   ar
    28    26    27   ar
    29    27    19   ar
    30    27    28   ar
    31    28    29    1
    32    28    30   ar
    33    30    31    1
    34    30    32   ar
    35    32    33    1
    36    32    34   ar
    37    34    35    1
    38    34    26   ar
    39    18    36    1
    40    36    37    1
    41    36    38    1
    42    36    39    1
    43     2    40    1
    44    40    41    1
    45    40    42    1
