@<TRIPOS>MOLECULE
38_12
 41 44 0 0 0
SMALL
USER_CHARGES
****
From 3DB ct
@<TRIPOS>ATOM
      1 N          10.4790    2.7670   13.2530 N.ar    1  LIG1       -0.7262
      2 C          10.7370    1.9840   12.1950 C.ar    1  LIG1        0.8332
      3 N          11.8390    2.0160   11.4510 N.ar    1  LIG1       -0.6761
      4 C          12.7160    2.9300   11.8770 C.ar    1  LIG1        0.5780
      5 C          12.5870    3.7910   12.9570 C.ar    1  LIG1       -0.7252
      6 C          11.3810    3.6900   13.6590 C.ar    1  LIG1        0.8286
      7 N          11.0270    4.4640   14.7330 N.pl3   1  LIG1       -0.7813
      8 H          11.5880    5.2220   15.0920 H       1  LIG1        0.3415
      9 H          10.1180    4.3140   15.1560 H       1  LIG1        0.3303
     10 C          13.8000    4.5540   13.0060 C.ar    1  LIG1        0.2327
     11 C          14.5480    4.1180   11.9280 C.ar    1  LIG1       -0.1643
     12 H          15.5210    4.3980   11.5420 H       1  LIG1        0.2282
     13 O          13.9080    3.1350   11.2520 O.2     1  LIG1       -0.1555
     14 C          14.2000    5.6220   13.9820 C.3     1  LIG1       -0.1976
     15 H          14.5040    5.1700   14.9310 H       1  LIG1        0.1230
     16 H          13.2790    6.1820   14.1820 H       1  LIG1        0.1114
     17 N          15.2930    6.5240   13.5670 N.pl3   1  LIG1       -0.2677
     18 C          15.2880    7.2040   12.3570 C.ar    1  LIG1        0.2667
     19 C          16.4710    7.6190   11.7210 C.ar    1  LIG1       -0.3503
     20 H          17.4380    7.3810   12.1630 H       1  LIG1        0.1447
     21 C          16.4740    8.3110   10.4910 C.ar    1  LIG1        0.1598
     22 C          15.2480    8.6020    9.8600 C.ar    1  LIG1        0.0311
     23 C          14.0610    8.1920   10.4740 C.ar    1  LIG1       -0.1151
     24 H          13.0970    8.4020   10.0120 H       1  LIG1        0.1223
     25 C          14.0880    7.5050   11.6950 C.ar    1  LIG1       -0.2364
     26 H          13.1290    7.2270   12.1300 H       1  LIG1        0.1176
     27 C          15.2440    9.2910    8.6350 C.ar    1  LIG1       -0.1601
     28 H          14.3040    9.5240    8.1360 H       1  LIG1        0.1185
     29 C          16.4410    9.6860    8.0370 C.ar    1  LIG1       -0.1142
     30 H          16.4260   10.2190    7.0880 H       1  LIG1        0.1029
     31 C          17.6540    9.3980    8.6560 C.ar    1  LIG1       -0.0711
     32 H          18.5900    9.7040    8.1920 H       1  LIG1        0.1002
     33 C          17.6700    8.7140    9.8740 C.ar    1  LIG1       -0.2021
     34 H          18.6310    8.4980   10.3400 H       1  LIG1        0.1192
     35 C          16.3360    6.8120   14.5540 C.3     1  LIG1       -0.0449
     36 H          16.5170    7.8900   14.6360 H       1  LIG1        0.0532
     37 H          17.2720    6.3100   14.2860 H       1  LIG1        0.0422
     38 H          16.0480    6.4670   15.5540 H       1  LIG1        0.0693
     39 N           9.7800    1.0760   11.8540 N.pl3   1  LIG1       -0.8313
     40 H           9.9300    0.4580   11.0700 H       1  LIG1        0.3836
     41 H           8.9320    1.0180   12.3990 H       1  LIG1        0.3810
@<TRIPOS>BOND
     1     1     2   ar
     2     2     3   ar
     3     3     4   ar
     4     4     5   ar
     5     5     6   ar
     6     6     1   ar
     7     6     7    1
     8     7     8    1
     9     7     9    1
    10     5    10   ar
    11    10    11   ar
    12    11    12    1
    13    11    13   ar
    14    13     4   ar
    15    10    14    1
    16    14    15    1
    17    14    16    1
    18    14    17    1
    19    17    18    1
    20    18    19   ar
    21    19    20    1
    22    19    21   ar
    23    21    22   ar
    24    22    23   ar
    25    23    24    1
    26    23    25   ar
    27    25    26    1
    28    25    18   ar
    29    22    27   ar
    30    27    28    1
    31    27    29   ar
    32    29    30    1
    33    29    31   ar
    34    31    32    1
    35    31    33   ar
    36    33    34    1
    37    33    21   ar
    38    17    35    1
    39    35    36    1
    40    35    37    1
    41    35    38    1
    42     2    39    1
    43    39    40    1
    44    39    41    1
