@<TRIPOS>MOLECULE
40_4
 41 43 0 0 0
SMALL
USER_CHARGES
****
From 3DB ct
@<TRIPOS>ATOM
      1 N          10.2610    2.6150   13.0580 N.ar    1  LIG1       -0.7198
      2 C          10.8430    1.8240   12.1520 C.ar    1  LIG1        0.8440
      3 N          12.0650    1.9840   11.6600 N.ar    1  LIG1       -0.5717
      4 C          12.7080    3.0510   12.1590 C.ar    1  LIG1        0.1946
      5 C          12.2280    3.9540   13.0920 C.ar    1  LIG1       -0.5538
      6 C          10.9230    3.6850   13.5500 C.ar    1  LIG1        0.7909
      7 N          10.2490    4.4310   14.4850 N.pl3   1  LIG1       -0.7740
      8 H          10.6500    5.2300   14.9500 H       1  LIG1        0.3401
      9 H           9.3150    4.1440   14.7520 H       1  LIG1        0.3298
     10 C          13.2190    4.9860   13.3700 C.ar    1  LIG1        0.2302
     11 C          14.3990    4.7680   12.6640 C.ar    1  LIG1       -0.2570
     12 S          14.2840    3.4000   11.6390 S.2     1  LIG1        0.1744
     13 C          15.6870    5.5640   12.6740 C.3     1  LIG1       -0.0585
     14 H          16.4780    4.9150   12.2810 H       1  LIG1        0.0867
     15 H          15.9950    5.8060   13.7000 H       1  LIG1        0.0359
     16 C          15.6040    6.8720   11.9010 C.ar    1  LIG1        0.1106
     17 C          14.3590    7.5210   11.7770 C.ar    1  LIG1       -0.3474
     18 H          13.4720    7.0810   12.2300 H       1  LIG1        0.1773
     19 C          14.2280    8.7250   11.0820 C.ar    1  LIG1        0.3216
     20 C          15.3570    9.3000   10.5110 C.ar    1  LIG1       -0.2517
     21 H          15.3110   10.2360    9.9590 H       1  LIG1        0.1397
     22 C          16.6070    8.6810   10.6410 C.ar    1  LIG1       -0.1820
     23 H          17.4580    9.1780   10.1810 H       1  LIG1        0.1280
     24 C          16.7440    7.4760   11.3360 C.ar    1  LIG1        0.1562
     25 O          17.9330    6.8200   11.5160 O.3     1  LIG1       -0.2701
     26 C          19.1070    7.4250   10.9770 C.3     1  LIG1        0.0413
     27 H          19.9550    6.7780   11.2220 H       1  LIG1        0.0555
     28 H          19.2910    8.4030   11.4340 H       1  LIG1        0.0311
     29 H          19.0470    7.4970    9.8860 H       1  LIG1        0.0387
     30 O          12.9570    9.2270   11.0370 O.3     1  LIG1       -0.2987
     31 C          12.7780   10.4570   10.3360 C.3     1  LIG1        0.0536
     32 H          11.7160   10.7160   10.3870 H       1  LIG1        0.0594
     33 H          13.0450   10.3510    9.2800 H       1  LIG1        0.0284
     34 H          13.3430   11.2650   10.8110 H       1  LIG1        0.0252
     35 C          12.9970    6.1290   14.3120 C.3     1  LIG1       -0.2273
     36 H          13.8020    6.8650   14.2680 H       1  LIG1        0.0833
     37 H          12.9280    5.7640   15.3420 H       1  LIG1        0.0564
     38 H          12.0730    6.6590   14.0580 H       1  LIG1        0.0734
     39 N          10.1190    0.7630   11.6980 N.pl3   1  LIG1       -0.8762
     40 H          10.5200    0.1380   11.0150 H       1  LIG1        0.3889
     41 H           9.1860    0.6080   12.0520 H       1  LIG1        0.3934
@<TRIPOS>BOND
     1     1     2   ar
     2     2     3   ar
     3     3     4   ar
     4     4     5   ar
     5     5     6   ar
     6     6     1   ar
     7     6     7    1
     8     7     8    1
     9     7     9    1
    10     5    10   ar
    11    10    11   ar
    12    11    12   ar
    13    12     4   ar
    14    11    13    1
    15    13    14    1
    16    13    15    1
    17    13    16    1
    18    16    17   ar
    19    17    18    1
    20    17    19   ar
    21    19    20   ar
    22    20    21    1
    23    20    22   ar
    24    22    23    1
    25    22    24   ar
    26    24    16   ar
    27    24    25    1
    28    25    26    1
    29    26    27    1
    30    26    28    1
    31    26    29    1
    32    19    30    1
    33    30    31    1
    34    31    32    1
    35    31    33    1
    36    31    34    1
    37    10    35    1
    38    35    36    1
    39    35    37    1
    40    35    38    1
    41     2    39    1
    42    39    40    1
    43    39    41    1
