@<TRIPOS>MOLECULE
40_9
 41 43 0 0 0
SMALL
USER_CHARGES
****
From 3DB ct
@<TRIPOS>ATOM
      1 N          10.4630    2.7880   13.2780 N.ar    1  LIG1       -0.7131
      2 C          10.6840    1.9480   12.2630 C.ar    1  LIG1        0.8248
      3 N          11.7670    1.9320   11.4970 N.ar    1  LIG1       -0.5785
      4 C          12.6720    2.8650   11.8300 C.ar    1  LIG1        0.2223
      5 C          12.5760    3.7960   12.8520 C.ar    1  LIG1       -0.5316
      6 C          11.3840    3.7230   13.6000 C.ar    1  LIG1        0.7877
      7 N          11.0660    4.5380   14.6570 N.pl3   1  LIG1       -0.7971
      8 H          11.6680    5.2740   14.9950 H       1  LIG1        0.3350
      9 H          10.1780    4.3990   15.1260 H       1  LIG1        0.3380
     10 C          13.7660    4.6430   12.9000 C.ar    1  LIG1        0.1619
     11 C          14.6640    4.2810   11.9090 C.ar    1  LIG1       -0.3675
     12 H          15.6300    4.7180   11.6920 H       1  LIG1        0.2336
     13 S          14.1210    2.9820   10.9490 S.2     1  LIG1        0.1617
     14 C          13.9750    5.7570   13.9030 C.3     1  LIG1       -0.0753
     15 H          13.9650    5.3140   14.9070 H       1  LIG1        0.0533
     16 H          13.1140    6.4350   13.8410 H       1  LIG1        0.0548
     17 C          15.2580    6.5770   13.7310 C.3     1  LIG1       -0.0397
     18 H          15.3450    7.3370   14.5190 H       1  LIG1        0.0410
     19 H          16.1380    5.9310   13.8510 H       1  LIG1        0.0290
     20 C          15.3200    7.2520   12.3750 C.ar    1  LIG1       -0.0322
     21 C          14.1200    7.5270   11.6960 C.ar    1  LIG1       -0.2513
     22 H          13.1680    7.2450   12.1450 H       1  LIG1        0.1458
     23 C          14.1200    8.1590   10.4510 C.ar    1  LIG1        0.2755
     24 C          15.3350    8.5250    9.8790 C.ar    1  LIG1       -0.2223
     25 H          15.3900    9.0180    8.9120 H       1  LIG1        0.1332
     26 C          16.5390    8.2630   10.5460 C.ar    1  LIG1       -0.1871
     27 H          17.4590    8.5710   10.0560 H       1  LIG1        0.1274
     28 C          16.5430    7.6320   11.7930 C.ar    1  LIG1        0.1800
     29 O          17.6680    7.3420   12.5180 O.3     1  LIG1       -0.2633
     30 C          18.9250    7.6910   11.9410 C.3     1  LIG1        0.0328
     31 H          19.7070    7.4090   12.6540 H       1  LIG1        0.0602
     32 H          18.9980    8.7710   11.7780 H       1  LIG1        0.0362
     33 H          19.1010    7.1340   11.0150 H       1  LIG1        0.0365
     34 O          12.8820    8.3600    9.9070 O.3     1  LIG1       -0.2968
     35 C          12.8370    8.9760    8.6210 C.3     1  LIG1        0.0544
     36 H          11.7860    9.0630    8.3290 H       1  LIG1        0.0577
     37 H          13.3420    8.3580    7.8710 H       1  LIG1        0.0277
     38 H          13.2590    9.9860    8.6540 H       1  LIG1        0.0306
     39 N           9.7130    1.0320   11.9940 N.pl3   1  LIG1       -0.8575
     40 H           9.8370    0.3770   11.2370 H       1  LIG1        0.3852
     41 H           8.8750    1.0140   12.5560 H       1  LIG1        0.3872
@<TRIPOS>BOND
     1     1     2   ar
     2     2     3   ar
     3     3     4   ar
     4     4     5   ar
     5     5     6   ar
     6     6     1   ar
     7     6     7    1
     8     7     8    1
     9     7     9    1
    10     5    10   ar
    11    10    11   ar
    12    11    12    1
    13    11    13   ar
    14    13     4   ar
    15    10    14    1
    16    14    15    1
    17    14    16    1
    18    14    17    1
    19    17    18    1
    20    17    19    1
    21    17    20    1
    22    20    21   ar
    23    21    22    1
    24    21    23   ar
    25    23    24   ar
    26    24    25    1
    27    24    26   ar
    28    26    27    1
    29    26    28   ar
    30    28    20   ar
    31    28    29    1
    32    29    30    1
    33    30    31    1
    34    30    32    1
    35    30    33    1
    36    23    34    1
    37    34    35    1
    38    35    36    1
    39    35    37    1
    40    35    38    1
    41     2    39    1
    42    39    40    1
    43    39    41    1
