@<TRIPOS>MOLECULE
40_table2_3
 33 35 0 0 0
SMALL
USER_CHARGES
****
From 3DB ct
@<TRIPOS>ATOM
      1 N          10.2330    2.6430   13.0180 N.ar    1  LIG1       -0.7211
      2 C          10.8250    1.8530   12.1180 C.ar    1  LIG1        0.8427
      3 N          12.0610    1.9990   11.6580 N.ar    1  LIG1       -0.5639
      4 C          12.7060    3.0540   12.1790 C.ar    1  LIG1        0.1775
      5 C          12.2150    3.9570   13.1060 C.ar    1  LIG1       -0.5386
      6 C          10.8970    3.6990   13.5360 C.ar    1  LIG1        0.7958
      7 N          10.2140    4.4410   14.4660 N.pl3   1  LIG1       -0.7801
      8 H          10.6210    5.2210   14.9600 H       1  LIG1        0.3396
      9 H           9.2740    4.1600   14.7160 H       1  LIG1        0.3315
     10 C          13.2080    4.9800   13.4080 C.ar    1  LIG1        0.1870
     11 C          14.4020    4.7530   12.7290 C.ar    1  LIG1       -0.1890
     12 S          14.2990    3.3850   11.7030 S.2     1  LIG1        0.1741
     13 C          15.6940    5.5370   12.7670 C.3     1  LIG1       -0.2167
     14 H          16.5140    4.8940   12.4200 H       1  LIG1        0.1065
     15 H          15.9630    5.8030   13.7980 H       1  LIG1        0.0807
     16 C          15.6460    6.8080   11.9430 C.ar    1  LIG1        0.1474
     17 C          16.8120    7.3240   11.3550 C.ar    1  LIG1       -0.1505
     18 H          17.7650    6.8120   11.4800 H       1  LIG1        0.1205
     19 C          16.7680    8.4980   10.6010 C.ar    1  LIG1       -0.1197
     20 H          17.6780    8.8890   10.1500 H       1  LIG1        0.1090
     21 C          15.5590    9.1680   10.4220 C.ar    1  LIG1       -0.0930
     22 H          15.5260   10.0840    9.8340 H       1  LIG1        0.1009
     23 C          14.3940    8.6650   10.9960 C.ar    1  LIG1       -0.1013
     24 H          13.4490    9.1860   10.8550 H       1  LIG1        0.1051
     25 C          14.4360    7.4900   11.7500 C.ar    1  LIG1       -0.1750
     26 H          13.5120    7.1120   12.1850 H       1  LIG1        0.1288
     27 C          12.9700    6.1250   14.3430 C.3     1  LIG1       -0.1965
     28 H          13.7700    6.8680   14.3030 H       1  LIG1        0.0657
     29 H          12.8960    5.7640   15.3740 H       1  LIG1        0.0532
     30 H          12.0460    6.6480   14.0800 H       1  LIG1        0.0717
     31 N          10.0950    0.8090   11.6330 N.pl3   1  LIG1       -0.8757
     32 H          10.5010    0.1890   10.9490 H       1  LIG1        0.3886
     33 H           9.1500    0.6690   11.9580 H       1  LIG1        0.3947
@<TRIPOS>BOND
     1     1     2   ar
     2     2     3   ar
     3     3     4   ar
     4     4     5   ar
     5     5     6   ar
     6     6     1   ar
     7     6     7    1
     8     7     8    1
     9     7     9    1
    10     5    10   ar
    11    10    11   ar
    12    11    12   ar
    13    12     4   ar
    14    11    13    1
    15    13    14    1
    16    13    15    1
    17    13    16    1
    18    16    17   ar
    19    17    18    1
    20    17    19   ar
    21    19    20    1
    22    19    21   ar
    23    21    22    1
    24    21    23   ar
    25    23    24    1
    26    23    25   ar
    27    25    26    1
    28    25    16   ar
    29    10    27    1
    30    27    28    1
    31    27    29    1
    32    27    30    1
    33     2    31    1
    34    31    32    1
    35    31    33    1
