@<TRIPOS>MOLECULE
43_17
 50 52 0 0 0
SMALL
USER_CHARGES
****
From 3DB ct
@<TRIPOS>ATOM
      1 N          12.0780    2.1580   11.6970 N.ar    1  LIG1       -0.7487
      2 H          12.2830    1.4400   11.0180 H       1  LIG1        0.3382
      3 C          10.7710    2.3460   12.0960 C.ar    1  LIG1        0.8676
      4 N          10.4080    3.2510   12.9660 N.ar    1  LIG1       -0.6413
      5 C          11.4340    3.9900   13.4490 C.ar    1  LIG1        0.4605
      6 C          12.7690    3.8930   13.1320 C.ar    1  LIG1       -0.5328
      7 C          13.1540    2.8900   12.1630 C.ar    1  LIG1        0.7557
      8 O          14.3100    2.7040   11.7870 O.2     1  LIG1       -0.4714
      9 C          13.4780    4.8740   13.8860 C.ar    1  LIG1       -0.0498
     10 C          12.5180    5.5420   14.6460 C.ar    1  LIG1        0.0839
     11 N          11.2840    4.9930   14.3640 N.ar    1  LIG1       -0.4255
     12 H          10.4000    5.2810   14.7670 H       1  LIG1        0.3646
     13 C          12.6570    6.6680   15.6080 C.3     1  LIG1       -0.1212
     14 H          13.6000    6.5960   16.1600 H       1  LIG1        0.0493
     15 H          11.8410    6.6710   16.3380 H       1  LIG1        0.0467
     16 H          12.6440    7.6230   15.0730 H       1  LIG1        0.0538
     17 C          14.9650    5.1340   13.8690 C.3     1  LIG1        0.1639
     18 H          15.4410    4.5410   13.0810 H       1  LIG1        0.0528
     19 H          15.3330    4.7280   14.8210 H       1  LIG1        0.0257
     20 N          15.4100    6.5330   13.7200 N.pl3   1  LIG1       -0.2857
     21 C          15.3340    7.2010   12.5020 C.ar    1  LIG1        0.2243
     22 C          16.4710    7.4110   11.6930 C.ar    1  LIG1       -0.3164
     23 H          17.4390    7.0610   12.0200 H       1  LIG1        0.1696
     24 C          16.4030    8.0710   10.4540 C.ar    1  LIG1        0.1247
     25 C          15.1610    8.5240    9.9970 C.ar    1  LIG1        0.0397
     26 C          14.0290    8.3680   10.7950 C.ar    1  LIG1        0.1994
     27 C          14.1110    7.6950   12.0170 C.ar    1  LIG1       -0.2447
     28 H          13.1980    7.5790   12.5950 H       1  LIG1        0.1432
     29 O          12.8070    8.8110   10.3540 O.3     1  LIG1       -0.2943
     30 C          12.9530    9.4690    9.0910 C.3     1  LIG1        0.0919
     31 H          11.9510    9.7230    8.7300 H       1  LIG1        0.0343
     32 H          13.4240    8.8120    8.3520 H       1  LIG1        0.0246
     33 H          13.5230   10.3990    9.1950 H       1  LIG1        0.0181
     34 O          15.0620    9.1890    8.7990 O.3     1  LIG1       -0.2296
     35 C          16.3410    9.2250    8.1570 C.3     1  LIG1        0.0273
     36 H          16.2210    9.7440    7.2020 H       1  LIG1        0.0452
     37 H          16.7100    8.2140    7.9500 H       1  LIG1        0.0511
     38 H          17.0700    9.7810    8.7570 H       1  LIG1        0.0384
     39 O          17.4710    8.3050    9.6260 O.3     1  LIG1       -0.2411
     40 C          18.7510    7.8560   10.0630 C.3     1  LIG1       -0.0118
     41 H          19.4860    8.1680    9.3150 H       1  LIG1        0.0616
     42 H          18.7820    6.7630   10.1260 H       1  LIG1        0.0525
     43 H          19.0280    8.3190   11.0160 H       1  LIG1        0.0428
     44 C          15.8460    7.2490   14.9200 C.3     1  LIG1       -0.1640
     45 H          15.4900    6.7640   15.8350 H       1  LIG1        0.0959
     46 H          15.4430    8.2690   14.9450 H       1  LIG1        0.0877
     47 H          16.9390    7.2950   14.9620 H       1  LIG1        0.0548
     48 N           9.8560    1.5320   11.5300 N.pl3   1  LIG1       -0.8886
     49 H           8.8760    1.6120   11.7770 H       1  LIG1        0.3844
     50 H          10.0900    0.8180   10.8500 H       1  LIG1        0.3932
@<TRIPOS>BOND
     1     2     1    1
     2     1     3   ar
     3     3     4   ar
     4     4     5   ar
     5     5     6   ar
     6     6     7   ar
     7     7     1   ar
     8     7     8    2
     9     6     9   ar
    10     9    10   ar
    11    10    11   ar
    12    11    12    1
    13    11     5   ar
    14    10    13    1
    15    13    14    1
    16    13    15    1
    17    13    16    1
    18     9    17    1
    19    17    18    1
    20    17    19    1
    21    17    20    1
    22    20    21    1
    23    21    22   ar
    24    22    23    1
    25    22    24   ar
    26    24    25   ar
    27    25    26   ar
    28    26    27   ar
    29    27    28    1
    30    27    21   ar
    31    26    29    1
    32    29    30    1
    33    30    31    1
    34    30    32    1
    35    30    33    1
    36    25    34    1
    37    34    35    1
    38    35    36    1
    39    35    37    1
    40    35    38    1
    41    24    39    1
    42    39    40    1
    43    40    41    1
    44    40    42    1
    45    40    43    1
    46    20    44    1
    47    44    45    1
    48    44    46    1
    49    44    47    1
    50     3    48    1
    51    48    49    1
    52    48    50    1
