@<TRIPOS>MOLECULE
43_10
 47 49 0 0 0
SMALL
USER_CHARGES
****
From 3DB ct
@<TRIPOS>ATOM
      1 N          12.0850    2.1510   11.7100 N.ar    1  LIG1       -0.7424
      2 H          12.2840    1.4170   11.0460 H       1  LIG1        0.3378
      3 C          10.7780    2.3710   12.0910 C.ar    1  LIG1        0.8669
      4 N          10.4250    3.2890   12.9530 N.ar    1  LIG1       -0.6410
      5 C          11.4610    4.0120   13.4370 C.ar    1  LIG1        0.4571
      6 C          12.7960    3.8940   13.1270 C.ar    1  LIG1       -0.5134
      7 C          13.1710    2.8680   12.1770 C.ar    1  LIG1        0.7447
      8 O          14.3280    2.6450   11.8250 O.2     1  LIG1       -0.4674
      9 C          13.5140    4.8760   13.8720 C.ar    1  LIG1       -0.1136
     10 C          12.5620    5.5430   14.6440 C.ar    1  LIG1        0.1267
     11 N          11.3220    5.0110   14.3560 N.ar    1  LIG1       -0.4240
     12 H          10.4410    5.3040   14.7620 H       1  LIG1        0.3634
     13 C          12.7060    6.6500   15.6290 C.3     1  LIG1       -0.1891
     14 H          12.6290    7.6180   15.1240 H       1  LIG1        0.0676
     15 H          13.6750    6.6010   16.1360 H       1  LIG1        0.0743
     16 H          11.9260    6.5980   16.3970 H       1  LIG1        0.0616
     17 C          14.9980    5.1320   13.8430 C.3     1  LIG1        0.2915
     18 H          15.4610    4.5320   13.0530 H       1  LIG1        0.0383
     19 H          15.4090    4.7800   14.7990 H       1  LIG1       -0.0043
     20 N          15.3660    6.5280   13.6440 N.pl3   1  LIG1       -0.6252
     21 H          15.6840    7.0250   14.4730 H       1  LIG1        0.3079
     22 C          15.3340    7.1930   12.4380 C.ar    1  LIG1        0.2465
     23 C          16.4710    7.4130   11.6480 C.ar    1  LIG1       -0.3197
     24 H          17.4440    7.0400   11.9570 H       1  LIG1        0.1569
     25 C          16.3760    8.1000   10.4320 C.ar    1  LIG1        0.1070
     26 C          15.1430    8.5580    9.9670 C.ar    1  LIG1        0.1000
     27 C          14.0130    8.3910   10.7660 C.ar    1  LIG1        0.0686
     28 C          14.1080    7.6940   11.9750 C.ar    1  LIG1       -0.1359
     29 H          13.2070    7.5480   12.5660 H       1  LIG1        0.1399
     30 O          12.7700    8.8210   10.3770 O.3     1  LIG1       -0.2791
     31 C          12.8380    9.4810    9.1080 C.3     1  LIG1        0.0903
     32 H          11.8770    9.9750    8.9380 H       1  LIG1        0.0334
     33 H          12.9940    8.7610    8.2980 H       1  LIG1        0.0209
     34 H          13.6210   10.2480    9.0950 H       1  LIG1        0.0215
     35 O          15.0700    9.2130    8.7650 O.3     1  LIG1       -0.2016
     36 C          16.3570    9.2310    8.1380 C.3     1  LIG1       -0.0356
     37 H          16.2640    9.7980    7.2080 H       1  LIG1        0.0595
     38 H          16.6910    8.2190    7.8860 H       1  LIG1        0.0642
     39 H          17.1000    9.7310    8.7700 H       1  LIG1        0.0572
     40 O          17.4990    8.2440    9.6570 O.3     1  LIG1       -0.2419
     41 C          18.6450    7.7470   10.3570 C.3     1  LIG1       -0.0441
     42 H          19.5290    7.9810    9.7570 H       1  LIG1        0.0659
     43 H          18.5900    6.6590   10.4730 H       1  LIG1        0.0665
     44 H          18.7590    8.2300   11.3340 H       1  LIG1        0.0540
     45 N           9.8470    1.5780   11.5230 N.pl3   1  LIG1       -0.8898
     46 H           8.8660    1.6980   11.7540 H       1  LIG1        0.3853
     47 H          10.0650    0.8500   10.8510 H       1  LIG1        0.3928
@<TRIPOS>BOND
     1     2     1    1
     2     1     3   ar
     3     3     4   ar
     4     4     5   ar
     5     5     6   ar
     6     6     7   ar
     7     7     1   ar
     8     7     8    2
     9     6     9   ar
    10     9    10   ar
    11    10    11   ar
    12    11    12    1
    13    11     5   ar
    14    10    13    1
    15    13    14    1
    16    13    15    1
    17    13    16    1
    18     9    17    1
    19    17    18    1
    20    17    19    1
    21    17    20    1
    22    20    21    1
    23    20    22    1
    24    22    23   ar
    25    23    24    1
    26    23    25   ar
    27    25    26   ar
    28    26    27   ar
    29    27    28   ar
    30    28    29    1
    31    28    22   ar
    32    27    30    1
    33    30    31    1
    34    31    32    1
    35    31    33    1
    36    31    34    1
    37    26    35    1
    38    35    36    1
    39    36    37    1
    40    36    38    1
    41    36    39    1
    42    25    40    1
    43    40    41    1
    44    41    42    1
    45    41    43    1
    46    41    44    1
    47     3    45    1
    48    45    46    1
    49    45    47    1
