@<TRIPOS>MOLECULE
44_10
 35 37 0 0 0
SMALL
USER_CHARGES
****
From 3DB ct
@<TRIPOS>ATOM
      1 N          10.2640    2.6570   13.0280 N.ar    1  LIG1       -0.6941
      2 C          10.8730    1.8730   12.1170 C.ar    1  LIG1        0.7440
      3 N          12.1180    2.0250   11.6430 N.ar    1  LIG1       -0.6149
      4 C          12.7400    3.0830   12.1840 C.ar    1  LIG1        0.4120
      5 C          12.2370    3.9630   13.1210 C.ar    1  LIG1       -0.3846
      6 C          10.9240    3.7190   13.5540 C.ar    1  LIG1        0.7342
      7 N          10.2740    4.5000   14.4810 N.pl3   1  LIG1       -0.7894
      8 H          10.7390    5.3010   14.8940 H       1  LIG1        0.3705
      9 H           9.3260    4.2780   14.7560 H       1  LIG1        0.3529
     10 N          13.1740    4.9250   13.4370 N.ar    1  LIG1       -0.2754
     11 C          14.2430    4.6400   12.7050 C.ar    1  LIG1        0.3142
     12 N          14.0060    3.5220   11.9280 N.ar    1  LIG1       -0.4466
     13 H          14.6610    3.0900   11.2910 H       1  LIG1        0.3344
     14 C          15.5150    5.3760   12.6850 C.ar    1  LIG1       -0.1833
     15 C          16.5630    4.9500   11.8520 C.ar    1  LIG1       -0.0204
     16 H          16.4420    4.0810   11.2060 H       1  LIG1        0.1139
     17 C          17.7850    5.6360   11.8110 C.ar    1  LIG1       -0.3074
     18 H          18.5550    5.2580   11.1440 H       1  LIG1        0.1347
     19 C          17.9870    6.7590   12.6100 C.ar    1  LIG1        0.4058
     20 C          16.9550    7.1950   13.4420 C.ar    1  LIG1       -0.4109
     21 H          17.1150    8.0580   14.0860 H       1  LIG1        0.1761
     22 C          15.7250    6.5230   13.4670 C.ar    1  LIG1        0.3348
     23 O          14.7600    6.9480   14.3480 O.3     1  LIG1       -0.2734
     24 C          15.1860    8.1300   15.0350 C.3     1  LIG1        0.0073
     25 H          14.3130    8.5530   15.5400 H       1  LIG1        0.0631
     26 H          15.5740    8.8830   14.3400 H       1  LIG1        0.0448
     27 H          15.9340    7.8890   15.7970 H       1  LIG1        0.0463
     28 O          19.1310    7.5050   12.6740 O.3     1  LIG1       -0.3142
     29 C          20.2150    7.0930   11.8420 C.3     1  LIG1        0.0683
     30 H          21.0450    7.7850   12.0100 H       1  LIG1        0.0603
     31 H          19.9410    7.1490   10.7830 H       1  LIG1        0.0282
     32 H          20.5570    6.0880   12.1110 H       1  LIG1        0.0257
     33 N          10.1520    0.8240   11.6300 N.pl3   1  LIG1       -0.7913
     34 H          10.5640    0.2080   10.9450 H       1  LIG1        0.3668
     35 H           9.2090    0.6720   11.9580 H       1  LIG1        0.3678
@<TRIPOS>BOND
     1     1     2   ar
     2     2     3   ar
     3     3     4   ar
     4     4     5   ar
     5     5     6   ar
     6     6     1   ar
     7     6     7    1
     8     7     8    1
     9     7     9    1
    10     5    10   ar
    11    10    11   ar
    12    11    12   ar
    13    12    13    1
    14    12     4   ar
    15    11    14    1
    16    14    15   ar
    17    15    16    1
    18    15    17   ar
    19    17    18    1
    20    17    19   ar
    21    19    20   ar
    22    20    21    1
    23    20    22   ar
    24    22    14   ar
    25    22    23    1
    26    23    24    1
    27    24    25    1
    28    24    26    1
    29    24    27    1
    30    19    28    1
    31    28    29    1
    32    29    30    1
    33    29    31    1
    34    29    32    1
    35     2    33    1
    36    33    34    1
    37    33    35    1
