@<TRIPOS>MOLECULE
44_22
 40 42 0 0 0
SMALL
USER_CHARGES
****
From 3DB ct
@<TRIPOS>ATOM
      1 N          10.4170    2.8250   13.1630 N.ar    1  LIG1       -0.6774
      2 C          10.7760    2.0570   12.1160 C.ar    1  LIG1        0.7265
      3 N          11.9830    2.0220   11.5330 N.ar    1  LIG1       -0.6031
      4 C          12.8510    2.8650   12.1120 C.ar    1  LIG1        0.3812
      5 C          12.6160    3.7040   13.1840 C.ar    1  LIG1       -0.2973
      6 C          11.3210    3.6670   13.7250 C.ar    1  LIG1        0.6913
      7 N          10.9220    4.4360   14.7930 N.pl3   1  LIG1       -0.7826
      8 H          11.5730    5.0740   15.2380 H       1  LIG1        0.3693
      9 H           9.9760    4.3660   15.1440 H       1  LIG1        0.3551
     10 N          13.7530    4.4250   13.4990 N.ar    1  LIG1       -0.3001
     11 C          14.6700    4.0240   12.6260 C.ar    1  LIG1        0.1989
     12 N          14.1560    3.0750   11.7680 N.ar    1  LIG1       -0.4359
     13 H          14.6520    2.6160   11.0170 H       1  LIG1        0.3444
     14 C          16.0970    4.4860   12.5140 C.3     1  LIG1        0.1449
     15 H          16.4650    4.2240   11.5150 H       1  LIG1        0.0311
     16 H          16.6910    3.9330   13.2520 H       1  LIG1        0.0629
     17 N          16.2630    5.9140   12.7290 N.pl3   1  LIG1       -0.5212
     18 H          16.6980    6.1860   13.6120 H       1  LIG1        0.2823
     19 C          15.9170    6.9190   11.8440 C.ar    1  LIG1        0.1971
     20 C          14.5830    7.2390   11.5530 C.ar    1  LIG1       -0.3039
     21 H          13.7700    6.6900   12.0240 H       1  LIG1        0.1613
     22 C          14.2480    8.2620   10.6570 C.ar    1  LIG1        0.3094
     23 C          15.2640    8.9840   10.0370 C.ar    1  LIG1       -0.2673
     24 H          15.0550    9.7860    9.3340 H       1  LIG1        0.1332
     25 C          16.6030    8.6870   10.3100 C.ar    1  LIG1       -0.1576
     26 H          17.3610    9.2770    9.8030 H       1  LIG1        0.1327
     27 C          16.9350    7.6650   11.2050 C.ar    1  LIG1        0.0896
     28 O          18.2220    7.3050   11.5340 O.3     1  LIG1       -0.2267
     29 C          19.2800    8.0330   10.9150 C.3     1  LIG1       -0.0410
     30 H          20.2250    7.6220   11.2840 H       1  LIG1        0.0730
     31 H          19.2460    9.0910   11.1920 H       1  LIG1        0.0542
     32 H          19.2630    7.9030    9.8280 H       1  LIG1        0.0514
     33 O          12.9050    8.4510   10.4780 O.3     1  LIG1       -0.3021
     34 C          12.5160    9.4840    9.5730 C.3     1  LIG1        0.0635
     35 H          11.4220    9.5050    9.5440 H       1  LIG1        0.0562
     36 H          12.8730    9.2730    8.5590 H       1  LIG1        0.0271
     37 H          12.8600   10.4630    9.9220 H       1  LIG1        0.0279
     38 N           9.8180    1.2370   11.6010 N.pl3   1  LIG1       -0.7733
     39 H          10.0390    0.6430   10.8150 H       1  LIG1        0.3628
     40 H           8.8940    1.2310   12.0070 H       1  LIG1        0.3620
@<TRIPOS>BOND
     1     1     2   ar
     2     2     3   ar
     3     3     4   ar
     4     4     5   ar
     5     5     6   ar
     6     6     1   ar
     7     6     7    1
     8     7     8    1
     9     7     9    1
    10     5    10   ar
    11    10    11   ar
    12    11    12   ar
    13    12    13    1
    14    12     4   ar
    15    11    14    1
    16    14    15    1
    17    14    16    1
    18    14    17    1
    19    17    18    1
    20    17    19    1
    21    19    20   ar
    22    20    21    1
    23    20    22   ar
    24    22    23   ar
    25    23    24    1
    26    23    25   ar
    27    25    26    1
    28    25    27   ar
    29    27    19   ar
    30    27    28    1
    31    28    29    1
    32    29    30    1
    33    29    31    1
    34    29    32    1
    35    22    33    1
    36    33    34    1
    37    34    35    1
    38    34    36    1
    39    34    37    1
    40     2    38    1
    41    38    39    1
    42    38    40    1
