@<TRIPOS>MOLECULE
6_1
 23 24 0 0 0
SMALL
USER_CHARGES
****
From 3DB ct
@<TRIPOS>ATOM
      1 N          10.1060    2.6200   12.8390 N.ar    1  LIG1       -0.6282
      2 C          10.7440    1.9350   11.8990 C.ar    1  LIG1        0.7768
      3 N          12.0220    2.1130   11.5830 N.ar    1  LIG1       -0.6495
      4 C          12.7130    3.0410   12.2550 C.ar    1  LIG1        0.4761
      5 C          12.1660    3.8390   13.2740 C.ar    1  LIG1       -0.6169
      6 C          10.8010    3.5540   13.5150 C.ar    1  LIG1        0.8310
      7 N          10.0480    4.2160   14.4760 N.pl3   1  LIG1       -0.9289
      8 H          10.3600    4.0660   15.4320 H       1  LIG1        0.3513
      9 H           9.9220    5.2100   14.3010 H       1  LIG1        0.3513
     10 C          13.0200    4.8060   13.9220 C.ar    1  LIG1        0.2748
     11 C          14.3620    4.9310   13.5280 C.ar    1  LIG1       -0.2360
     12 H          15.0190    5.6560   14.0070 H       1  LIG1        0.1310
     13 C          14.8720    4.1300   12.5200 C.ar    1  LIG1       -0.0287
     14 H          15.9120    4.2260   12.2140 H       1  LIG1        0.1075
     15 C          14.0440    3.1990   11.8990 C.ar    1  LIG1       -0.2256
     16 H          14.4620    2.5770   11.1070 H       1  LIG1        0.1313
     17 C          12.5460    5.7150   15.0260 C.3     1  LIG1       -0.2803
     18 H          12.2150    5.1320   15.8900 H       1  LIG1        0.0778
     19 H          11.7420    6.3670   14.6700 H       1  LIG1        0.0778
     20 H          13.3490    6.3720   15.3800 H       1  LIG1        0.0730
     21 N          10.0470    0.9890   11.2120 N.pl3   1  LIG1       -0.8154
     22 H          10.5070    0.4530   10.4920 H       1  LIG1        0.3760
     23 H           9.0750    0.8300   11.4280 H       1  LIG1        0.3740
@<TRIPOS>BOND
     1     1     2   ar
     2     2     3   ar
     3     3     4   ar
     4     4     5   ar
     5     5     6   ar
     6     6     1   ar
     7     6     7    1
     8     7     8    1
     9     7     9    1
    10     5    10   ar
    11    10    11   ar
    12    11    12    1
    13    11    13   ar
    14    13    14    1
    15    13    15   ar
    16    15    16    1
    17    15     4   ar
    18    10    17    1
    19    17    18    1
    20    17    19    1
    21    17    20    1
    22     2    21    1
    23    21    22    1
    24    21    23    1
