@<TRIPOS>MOLECULE
6_14
 23 24 0 0 0
SMALL
USER_CHARGES
****
From 3DB ct
@<TRIPOS>ATOM
      1 N          10.1270    2.6220   12.8790 N.ar    1  LIG1       -0.6853
      2 C          10.7280    1.9720   11.8830 C.ar    1  LIG1        0.8043
      3 N          12.0040    2.1340   11.5340 N.ar    1  LIG1       -0.6694
      4 C          12.7320    3.0200   12.2260 C.ar    1  LIG1        0.4656
      5 C          12.2090    3.7590   13.2900 C.ar    1  LIG1       -0.4657
      6 C          10.8670    3.4900   13.5860 C.ar    1  LIG1        0.7096
      7 N          10.1880    4.1560   14.5920 N.pl3   1  LIG1       -0.7691
      8 H          10.6810    4.3490   15.4590 H       1  LIG1        0.3375
      9 H           9.2180    3.8800   14.7120 H       1  LIG1        0.3319
     10 C          13.0320    4.6940   13.9710 C.ar    1  LIG1       -0.0497
     11 H          12.6210    5.2800   14.7930 H       1  LIG1        0.1151
     12 C          14.3670    4.8860   13.6020 C.ar    1  LIG1        0.0447
     13 C          14.8780    4.1380   12.5450 C.ar    1  LIG1       -0.0888
     14 H          15.9130    4.2570   12.2270 H       1  LIG1        0.1201
     15 C          14.0610    3.2210   11.8730 C.ar    1  LIG1       -0.2382
     16 H          14.4830    2.6510   11.0470 H       1  LIG1        0.1366
     17 C          15.2180    5.8790   14.3370 C.3     1  LIG1       -0.1920
     18 H          14.7880    6.8820   14.2480 H       1  LIG1        0.0564
     19 H          16.2350    5.9130   13.9330 H       1  LIG1        0.0611
     20 H          15.2850    5.6080   15.3950 H       1  LIG1        0.0507
     21 N           9.9880    1.0790   11.1710 N.pl3   1  LIG1       -0.8295
     22 H          10.4140    0.5710   10.4100 H       1  LIG1        0.3801
     23 H           9.0180    0.9310   11.4080 H       1  LIG1        0.3740
@<TRIPOS>BOND
     1     1     2   ar
     2     2     3   ar
     3     3     4   ar
     4     4     5   ar
     5     5     6   ar
     6     6     1   ar
     7     6     7    1
     8     7     8    1
     9     7     9    1
    10     5    10   ar
    11    10    11    1
    12    10    12   ar
    13    12    13   ar
    14    13    14    1
    15    13    15   ar
    16    15    16    1
    17    15     4   ar
    18    12    17    1
    19    17    18    1
    20    17    19    1
    21    17    20    1
    22     2    21    1
    23    21    22    1
    24    21    23    1
