@<TRIPOS>MOLECULE
7_4
 39 42 0 0 0
SMALL
USER_CHARGES
****
From 3DB ct
@<TRIPOS>ATOM
      1 N          10.3400    2.4000   13.4130 N.ar    1  LIG1       -0.7309
      2 C          10.6260    1.6730   12.3200 C.ar    1  LIG1        0.8351
      3 N          11.7090    1.7980   11.5530 N.ar    1  LIG1       -0.6555
      4 C          12.5310    2.7600   11.9860 C.ar    1  LIG1        0.5309
      5 C          12.3540    3.5830   13.0920 C.ar    1  LIG1       -0.7015
      6 C          11.1880    3.3660   13.8280 C.ar    1  LIG1        0.8334
      7 N          10.8490    4.0750   14.9520 N.pl3   1  LIG1       -0.7785
      8 H          11.4380    4.8060   15.3290 H       1  LIG1        0.3451
      9 H           9.9860    3.8570   15.4340 H       1  LIG1        0.3339
     10 C          13.4860    4.4340   13.1280 C.ar    1  LIG1        0.1387
     11 C          14.2700    4.0660   12.0590 C.ar    1  LIG1        0.0755
     12 O          13.7060    3.0600   11.3510 O.2     1  LIG1       -0.1571
     13 C          15.5660    4.6670   11.6460 C.3     1  LIG1       -0.2704
     14 H          15.3880    5.3200   10.7830 H       1  LIG1        0.1527
     15 H          16.2520    3.8680   11.3450 H       1  LIG1        0.1829
     16 N          16.1410    5.4350   12.7890 N.3     1  LIG1       -0.1160
     17 C          15.1070    6.3130   13.4130 C.3     1  LIG1       -0.0993
     18 H          14.7140    7.0120   12.6610 H       1  LIG1        0.0802
     19 H          15.5610    6.9160   14.2090 H       1  LIG1        0.1018
     20 C          13.9270    5.5180   14.0440 C.3     1  LIG1       -0.1344
     21 H          14.2550    5.0720   14.9910 H       1  LIG1        0.0690
     22 H          13.1010    6.2040   14.2610 H       1  LIG1        0.0770
     23 C          17.2880    6.2510   12.3400 C.3     1  LIG1       -0.6048
     24 H          18.0640    5.5900   11.9280 H       1  LIG1        0.1848
     25 H          17.7650    6.7530   13.1880 H       1  LIG1        0.1797
     26 C          16.9260    7.2130   11.2240 C.ar    1  LIG1        0.6688
     27 C          16.3830    8.4650   11.5730 C.ar    1  LIG1       -0.4477
     28 H          16.2370    8.7210   12.6230 H       1  LIG1        0.1631
     29 C          16.0280    9.3940   10.5940 C.ar    1  LIG1        0.2968
     30 H          15.6110   10.3540   10.8890 H       1  LIG1        0.0436
     31 C          16.2120    9.0830    9.2510 C.ar    1  LIG1       -0.5616
     32 C          16.7490    7.8530    8.8790 C.ar    1  LIG1        0.4629
     33 H          16.8910    7.6200    7.8270 H       1  LIG1       -0.0022
     34 C          17.1050    6.9220    9.8610 C.ar    1  LIG1       -0.6441
     35 CL         17.7750    5.4230    9.3190 Cl      1  LIG1        0.1162
     36 CL         15.7760   10.2270    8.0400 Cl      1  LIG1        0.1019
     37 N           9.7210    0.7180   11.9650 N.pl3   1  LIG1       -0.8395
     38 H           9.8880    0.1440   11.1520 H       1  LIG1        0.3842
     39 H           8.8870    0.5920   12.5200 H       1  LIG1        0.3852
@<TRIPOS>BOND
     1     1     2   ar
     2     2     3   ar
     3     3     4   ar
     4     4     5   ar
     5     5     6   ar
     6     6     1   ar
     7     6     7    1
     8     7     8    1
     9     7     9    1
    10     5    10   ar
    11    10    11   ar
    12    11    12   ar
    13    12     4   ar
    14    11    13    1
    15    13    14    1
    16    13    15    1
    17    13    16    1
    18    16    17    1
    19    17    18    1
    20    17    19    1
    21    17    20    1
    22    20    21    1
    23    20    22    1
    24    20    10    1
    25    16    23    1
    26    23    24    1
    27    23    25    1
    28    23    26    1
    29    26    27   ar
    30    27    28    1
    31    27    29   ar
    32    29    30    1
    33    29    31   ar
    34    31    32   ar
    35    32    33    1
    36    32    34   ar
    37    34    26   ar
    38    34    35    1
    39    31    36    1
    40     2    37    1
    41    37    38    1
    42    37    39    1
