@<TRIPOS>MOLECULE
7_5
 39 42 0 0 0
SMALL
USER_CHARGES
****
From 3DB ct
@<TRIPOS>ATOM
      1 N          10.3400    2.4060   13.4060 N.ar    1  LIG1       -0.7324
      2 C          10.6300    1.6780   12.3140 C.ar    1  LIG1        0.8391
      3 N          11.7150    1.8020   11.5500 N.ar    1  LIG1       -0.6673
      4 C          12.5360    2.7650   11.9850 C.ar    1  LIG1        0.5679
      5 C          12.3560    3.5870   13.0910 C.ar    1  LIG1       -0.7378
      6 C          11.1880    3.3720   13.8230 C.ar    1  LIG1        0.8376
      7 N          10.8460    4.0820   14.9460 N.pl3   1  LIG1       -0.7762
      8 H          11.4340    4.8120   15.3240 H       1  LIG1        0.3452
      9 H           9.9810    3.8640   15.4250 H       1  LIG1        0.3344
     10 C          13.4890    4.4380   13.1310 C.ar    1  LIG1        0.2115
     11 C          14.2760    4.0690   12.0640 C.ar    1  LIG1       -0.0386
     12 O          13.7130    3.0630   11.3540 O.2     1  LIG1       -0.1600
     13 C          15.5750    4.6690   11.6550 C.3     1  LIG1       -0.0258
     14 H          15.4030    5.3170   10.7870 H       1  LIG1        0.0997
     15 H          16.2610    3.8670   11.3630 H       1  LIG1        0.1296
     16 N          16.1450    5.4420   12.7970 N.3     1  LIG1       -0.2328
     17 C          15.1070    6.3180   13.4180 C.3     1  LIG1       -0.0440
     18 H          14.7140    7.0150   12.6650 H       1  LIG1        0.0664
     19 H          15.5580    6.9240   14.2140 H       1  LIG1        0.1027
     20 C          13.9280    5.5210   14.0480 C.3     1  LIG1       -0.1808
     21 H          14.2550    5.0750   14.9950 H       1  LIG1        0.0776
     22 H          13.1010    6.2060   14.2640 H       1  LIG1        0.0821
     23 C          17.2870    6.2620   12.3480 C.3     1  LIG1       -0.5167
     24 H          18.0910    5.6110   11.9820 H       1  LIG1        0.1869
     25 H          17.7140    6.8300   13.1860 H       1  LIG1        0.1886
     26 C          16.9320    7.1890   11.2030 C.ar    1  LIG1        0.2030
     27 C          16.3620    8.4460   11.4550 C.ar    1  LIG1       -0.1824
     28 H          16.1740    8.7640   12.4800 H       1  LIG1        0.1231
     29 C          16.0350    9.3020   10.4010 C.ar    1  LIG1        0.0856
     30 H          15.5950   10.2730   10.6220 H       1  LIG1        0.0656
     31 C          16.2730    8.9130    9.0810 C.ar    1  LIG1       -0.2072
     32 C          16.8390    7.6620    8.8160 C.ar    1  LIG1       -0.2202
     33 C          17.1660    6.8050    9.8740 C.ar    1  LIG1        0.0413
     34 H          17.6070    5.8320    9.6610 H       1  LIG1        0.0670
     35 CL         17.1620    7.1160    7.2070 Cl      1  LIG1        0.0689
     36 CL         15.8450   10.0210    7.8230 Cl      1  LIG1        0.0668
     37 N           9.7250    0.7240   11.9570 N.pl3   1  LIG1       -0.8413
     38 H           9.8950    0.1490   11.1440 H       1  LIG1        0.3865
     39 H           8.8900    0.5970   12.5090 H       1  LIG1        0.3862
@<TRIPOS>BOND
     1     1     2   ar
     2     2     3   ar
     3     3     4   ar
     4     4     5   ar
     5     5     6   ar
     6     6     1   ar
     7     6     7    1
     8     7     8    1
     9     7     9    1
    10     5    10   ar
    11    10    11   ar
    12    11    12   ar
    13    12     4   ar
    14    11    13    1
    15    13    14    1
    16    13    15    1
    17    13    16    1
    18    16    17    1
    19    17    18    1
    20    17    19    1
    21    17    20    1
    22    20    21    1
    23    20    22    1
    24    20    10    1
    25    16    23    1
    26    23    24    1
    27    23    25    1
    28    23    26    1
    29    26    27   ar
    30    27    28    1
    31    27    29   ar
    32    29    30    1
    33    29    31   ar
    34    31    32   ar
    35    32    33   ar
    36    33    34    1
    37    33    26   ar
    38    32    35    1
    39    31    36    1
    40     2    37    1
    41    37    38    1
    42    37    39    1
