@<TRIPOS>MOLECULE
8_6
 33 35 0 0 0
SMALL
USER_CHARGES
****
From 3DB ct
@<TRIPOS>ATOM
      1 N          10.1240    2.5920   12.8480 N.ar    1  LIG1       -0.6832
      2 C          10.7700    1.9730   11.8630 C.ar    1  LIG1        0.7912
      3 N          12.0480    2.1720   11.5530 N.ar    1  LIG1       -0.7053
      4 C          12.7310    3.0550   12.2660 C.ar    1  LIG1        0.8483
      5 C          12.1590    3.7620   13.3210 C.ar    1  LIG1       -0.7884
      6 C          10.8210    3.4660   13.5840 C.ar    1  LIG1        0.7612
      7 N          10.1040    4.1070   14.5790 N.pl3   1  LIG1       -0.7838
      8 H          10.5680    4.3070   15.4590 H       1  LIG1        0.3345
      9 H           9.1360    3.8110   14.6720 H       1  LIG1        0.3408
     10 C          12.9530    4.7000   14.0230 C.ar    1  LIG1        0.3818
     11 H          12.5250    5.2770   14.8400 H       1  LIG1        0.0606
     12 C          14.2850    4.8980   13.6650 C.ar    1  LIG1       -0.5125
     13 C          14.7550    4.1450   12.6030 C.ar    1  LIG1        0.4333
     14 H          15.7820    4.2470   12.2550 H       1  LIG1        0.0827
     15 N          14.0070    3.2430   11.9170 N.ar    1  LIG1       -0.6002
     16 C          15.1600    5.8950   14.3690 C.3     1  LIG1        0.0045
     17 H          15.3590    5.5560   15.3920 H       1  LIG1        0.1028
     18 H          14.6380    6.8560   14.4480 H       1  LIG1        0.0317
     19 S          16.7350    6.1330   13.4740 S.3     1  LIG1       -0.0953
     20 C          16.1300    7.1580   12.1330 C.ar    1  LIG1        0.0844
     21 C          14.7960    7.5880   12.2000 C.ar    1  LIG1        0.1280
     22 H          14.1700    7.3050   13.0440 H       1  LIG1        0.0573
     23 C          14.2610    8.3820   11.1860 C.ar    1  LIG1       -0.4350
     24 C          15.0410    8.7550   10.0940 C.ar    1  LIG1        0.1564
     25 H          14.6270    9.3740    9.3020 H       1  LIG1        0.0606
     26 C          16.3670    8.3270   10.0130 C.ar    1  LIG1       -0.0450
     27 H          16.9680    8.6180    9.1540 H       1  LIG1        0.0908
     28 C          16.9120    7.5290   11.0250 C.ar    1  LIG1       -0.2382
     29 CL         18.5590    7.0300   10.8430 Cl      1  LIG1        0.0861
     30 CL         12.6240    8.9060   11.2840 Cl      1  LIG1        0.0919
     31 N          10.0720    1.0720   11.1200 N.pl3   1  LIG1       -0.7923
     32 H          10.5280    0.5830   10.3630 H       1  LIG1        0.3816
     33 H           9.1000    0.8980   11.3290 H       1  LIG1        0.3685
@<TRIPOS>BOND
     1     1     2   ar
     2     2     3   ar
     3     3     4   ar
     4     4     5   ar
     5     5     6   ar
     6     6     1   ar
     7     6     7    1
     8     7     8    1
     9     7     9    1
    10     5    10   ar
    11    10    11    1
    12    10    12   ar
    13    12    13   ar
    14    13    14    1
    15    13    15   ar
    16    15     4   ar
    17    12    16    1
    18    16    17    1
    19    16    18    1
    20    16    19    1
    21    19    20    1
    22    20    21   ar
    23    21    22    1
    24    21    23   ar
    25    23    24   ar
    26    24    25    1
    27    24    26   ar
    28    26    27    1
    29    26    28   ar
    30    28    20   ar
    31    28    29    1
    32    23    30    1
    33     2    31    1
    34    31    32    1
    35    31    33    1
