@<TRIPOS>MOLECULE
9_12q
 45 47 0 0 0
SMALL
USER_CHARGES
****
From 3DB ct
@<TRIPOS>ATOM
      1 N          10.1790    2.6480   12.8990 N.ar    1  LIG1       -0.6533
      2 C          10.7660    1.9960   11.9000 C.ar    1  LIG1        0.7627
      3 N          12.0340    2.1590   11.5370 N.ar    1  LIG1       -0.6655
      4 C          12.7630    3.0370   12.2180 C.ar    1  LIG1        0.5996
      5 C          12.2710    3.7880   13.2940 C.ar    1  LIG1       -0.2987
      6 C          10.9360    3.5210   13.5880 C.ar    1  LIG1        0.6192
      7 N          10.2770    4.2170   14.5940 N.pl3   1  LIG1       -0.7165
      8 H          10.8340    4.5470   15.3780 H       1  LIG1        0.3438
      9 H           9.3190    3.9490   14.7870 H       1  LIG1        0.3499
     10 N          13.0470    4.6850   13.9840 N.ar    1  LIG1       -0.2272
     11 C          14.3360    4.8160   13.5820 C.ar    1  LIG1        0.1122
     12 C          14.8060    4.0770   12.5110 C.ar    1  LIG1        0.2149
     13 H          15.8290    4.1800   12.1580 H       1  LIG1        0.0778
     14 N          14.0350    3.1870   11.8300 N.ar    1  LIG1       -0.4550
     15 C          15.2330    5.8100   14.2870 C.3     1  LIG1       -0.1467
     16 H          15.7190    5.3090   15.1330 H       1  LIG1        0.0957
     17 H          14.6130    6.6200   14.6880 H       1  LIG1        0.1185
     18 N          16.2260    6.3560   13.3670 N.pl3   1  LIG1       -0.3983
     19 H          17.1710    5.9810   13.4540 H       1  LIG1        0.2811
     20 C          15.9310    7.1220   12.2550 C.ar    1  LIG1        0.3210
     21 C          16.9500    7.3720   11.3250 C.ar    1  LIG1       -0.4593
     22 H          17.9410    6.9490   11.4770 H       1  LIG1        0.1503
     23 C          16.7140    8.1560   10.1960 C.ar    1  LIG1        0.3210
     24 C          15.4680    8.7560   10.0040 C.ar    1  LIG1       -0.1804
     25 C          14.4270    8.5160   10.9090 C.ar    1  LIG1        0.4138
     26 C          14.6740    7.7090   12.0310 C.ar    1  LIG1       -0.4191
     27 H          13.8790    7.5250   12.7470 H       1  LIG1        0.1575
     28 O          13.2260    9.1110   10.6150 O.3     1  LIG1       -0.2906
     29 C          13.1600    9.8990    9.4280 C.3     1  LIG1        0.0043
     30 H          12.1480   10.3110    9.3590 H       1  LIG1        0.0569
     31 H          13.3320    9.2840    8.5390 H       1  LIG1        0.0574
     32 H          13.8600   10.7400    9.4740 H       1  LIG1        0.0620
     33 O          15.2490    9.5260    8.8860 O.3     1  LIG1       -0.2441
     34 C          16.4550    9.6270    8.1220 C.3     1  LIG1        0.0398
     35 H          16.2430   10.2450    7.2440 H       1  LIG1        0.0292
     36 H          16.7870    8.6430    7.7720 H       1  LIG1        0.0504
     37 H          17.2500   10.1140    8.6970 H       1  LIG1        0.0422
     38 O          17.7460    8.3860    9.3230 O.3     1  LIG1       -0.2422
     39 C          18.9070    7.6580    9.7420 C.3     1  LIG1       -0.0408
     40 H          19.7030    7.8560    9.0180 H       1  LIG1        0.0754
     41 H          18.7170    6.5800    9.7520 H       1  LIG1        0.0582
     42 H          19.2500    7.9960   10.7260 H       1  LIG1        0.0578
     43 N          10.0160    1.1010   11.2010 N.pl3   1  LIG1       -0.7667
     44 H          10.4280    0.5880   10.4350 H       1  LIG1        0.3711
     45 H           9.0490    0.9560   11.4510 H       1  LIG1        0.3609
@<TRIPOS>BOND
     1     1     2   ar
     2     2     3   ar
     3     3     4   ar
     4     4     5   ar
     5     5     6   ar
     6     6     1   ar
     7     6     7    1
     8     7     8    1
     9     7     9    1
    10     5    10   ar
    11    10    11   ar
    12    11    12   ar
    13    12    13    1
    14    12    14   ar
    15    14     4   ar
    16    11    15    1
    17    15    16    1
    18    15    17    1
    19    15    18    1
    20    18    19    1
    21    18    20    1
    22    20    21   ar
    23    21    22    1
    24    21    23   ar
    25    23    24   ar
    26    24    25   ar
    27    25    26   ar
    28    26    27    1
    29    26    20   ar
    30    25    28    1
    31    28    29    1
    32    29    30    1
    33    29    31    1
    34    29    32    1
    35    24    33    1
    36    33    34    1
    37    34    35    1
    38    34    36    1
    39    34    37    1
    40    23    38    1
    41    38    39    1
    42    39    40    1
    43    39    41    1
    44    39    42    1
    45     2    43    1
    46    43    44    1
    47    43    45    1
