@<TRIPOS>MOLECULE
9_12i
 32 34 0 0 0
SMALL
USER_CHARGES
****
From 3DB ct
@<TRIPOS>ATOM
      1 N          10.1480    2.5960   12.8680 N.ar    1  LIG1       -0.6291
      2 C          10.7710    1.9600   11.8800 C.ar    1  LIG1        0.7461
      3 N          12.0420    2.1560   11.5420 N.ar    1  LIG1       -0.6734
      4 C          12.7340    3.0530   12.2380 C.ar    1  LIG1        0.6325
      5 C          12.2000    3.7910   13.3020 C.ar    1  LIG1       -0.2757
      6 C          10.8670    3.4880   13.5710 C.ar    1  LIG1        0.5739
      7 N          10.1710    4.1650   14.5650 N.pl3   1  LIG1       -0.7083
      8 H          10.7040    4.5070   15.3600 H       1  LIG1        0.3420
      9 H           9.2160    3.8710   14.7390 H       1  LIG1        0.3471
     10 N          12.9360    4.7120   14.0050 N.ar    1  LIG1       -0.2179
     11 C          14.2240    4.8870   13.6220 C.ar    1  LIG1        0.0955
     12 C          14.7400    4.1520   12.5690 C.ar    1  LIG1        0.1573
     13 H          15.7680    4.2760   12.2410 H       1  LIG1        0.1173
     14 N          14.0090    3.2370   11.8770 N.ar    1  LIG1       -0.4493
     15 C          15.0680    5.9000   14.3520 C.3     1  LIG1       -0.2715
     16 H          15.2190    5.5720   15.3860 H       1  LIG1        0.1364
     17 H          14.5330    6.8560   14.3790 H       1  LIG1        0.1123
     18 S          16.6840    6.1490   13.5230 S.3     1  LIG1       -0.0068
     19 C          16.1810    7.1690   12.1470 C.ar    1  LIG1       -0.1852
     20 C          14.8600    7.6300   12.1000 C.ar    1  LIG1        0.0467
     21 H          14.1570    7.3830   12.8940 H       1  LIG1        0.0924
     22 C          14.4230    8.4230   11.0360 C.ar    1  LIG1       -0.2523
     23 H          13.3960    8.7830   11.0110 H       1  LIG1        0.1268
     24 C          15.3030    8.7510   10.0050 C.ar    1  LIG1        0.2372
     25 H          14.9590    9.3690    9.1790 H       1  LIG1        0.0414
     26 C          16.6130    8.2790   10.0420 C.ar    1  LIG1       -0.5070
     27 C          17.0550    7.4870   11.1030 C.ar    1  LIG1        0.2629
     28 H          18.0760    7.1150   11.1010 H       1  LIG1        0.0425
     29 CL         17.6980    8.6730    8.7630 Cl      1  LIG1        0.0893
     30 N          10.0590    1.0480   11.1660 N.pl3   1  LIG1       -0.7524
     31 H          10.4960    0.5490   10.4050 H       1  LIG1        0.3731
     32 H           9.0900    0.8800   11.3960 H       1  LIG1        0.3563
@<TRIPOS>BOND
     1     1     2   ar
     2     2     3   ar
     3     3     4   ar
     4     4     5   ar
     5     5     6   ar
     6     6     1   ar
     7     6     7    1
     8     7     8    1
     9     7     9    1
    10     5    10   ar
    11    10    11   ar
    12    11    12   ar
    13    12    13    1
    14    12    14   ar
    15    14     4   ar
    16    11    15    1
    17    15    16    1
    18    15    17    1
    19    15    18    1
    20    18    19    1
    21    19    20   ar
    22    20    21    1
    23    20    22   ar
    24    22    23    1
    25    22    24   ar
    26    24    25    1
    27    24    26   ar
    28    26    27   ar
    29    27    28    1
    30    27    19   ar
    31    26    29    1
    32     2    30    1
    33    30    31    1
    34    30    32    1
