@<TRIPOS>MOLECULE
9_12d
 35 37 0 0 0
SMALL
USER_CHARGES
****
From 3DB ct
@<TRIPOS>ATOM
      1 N          10.1470    2.6100   12.8580 N.ar    1  LIG1       -0.6378
      2 C          10.7680    1.9840   11.8620 C.ar    1  LIG1        0.7463
      3 N          12.0440    2.1660   11.5390 N.ar    1  LIG1       -0.6687
      4 C          12.7420    3.0420   12.2540 C.ar    1  LIG1        0.6338
      5 C          12.2110    3.7690   13.3270 C.ar    1  LIG1       -0.3051
      6 C          10.8730    3.4790   13.5820 C.ar    1  LIG1        0.5996
      7 N          10.1800    4.1480   14.5840 N.pl3   1  LIG1       -0.7117
      8 H          10.7120    4.4740   15.3860 H       1  LIG1        0.3428
      9 H           9.2200    3.8640   14.7480 H       1  LIG1        0.3455
     10 N          12.9540    4.6710   14.0470 N.ar    1  LIG1       -0.2115
     11 C          14.2450    4.8420   13.6660 C.ar    1  LIG1        0.0867
     12 C          14.7560    4.1170   12.6040 C.ar    1  LIG1        0.2018
     13 H          15.7850    4.2410   12.2770 H       1  LIG1        0.1016
     14 N          14.0200    3.2170   11.9000 N.ar    1  LIG1       -0.4653
     15 C          15.0920    5.8560   14.3910 C.3     1  LIG1       -0.2555
     16 H          15.2960    5.5060   15.4090 H       1  LIG1        0.1244
     17 H          14.5340    6.7960   14.4630 H       1  LIG1        0.1113
     18 S          16.6640    6.1580   13.4960 S.3     1  LIG1       -0.0180
     19 C          16.1100    7.1860   12.1450 C.ar    1  LIG1       -0.0967
     20 C          14.7890    7.6490   12.1720 C.ar    1  LIG1       -0.0057
     21 H          14.1210    7.3790   12.9890 H       1  LIG1        0.0878
     22 C          14.3000    8.4570   11.1440 C.ar    1  LIG1       -0.1717
     23 H          13.2680    8.8020   11.1690 H       1  LIG1        0.1187
     24 C          15.1290    8.8190   10.0840 C.ar    1  LIG1       -0.1187
     25 H          14.7300    9.4430    9.2850 H       1  LIG1        0.1203
     26 C          16.4600    8.3910   10.0530 C.ar    1  LIG1        0.0952
     27 C          16.9410    7.5700   11.0860 C.ar    1  LIG1       -0.1320
     28 H          17.9790    7.2440   11.0550 H       1  LIG1        0.1368
     29 C          17.3440    8.7640    8.8970 C.3     1  LIG1       -0.2378
     30 H          18.4010    8.7260    9.1790 H       1  LIG1        0.0696
     31 H          17.1340    9.7860    8.5640 H       1  LIG1        0.0659
     32 H          17.1790    8.0750    8.0640 H       1  LIG1        0.0743
     33 N          10.0460    1.0990   11.1230 N.pl3   1  LIG1       -0.7535
     34 H          10.4830    0.6120   10.3540 H       1  LIG1        0.3704
     35 H           9.0720    0.9450   11.3390 H       1  LIG1        0.3568
@<TRIPOS>BOND
     1     1     2   ar
     2     2     3   ar
     3     3     4   ar
     4     4     5   ar
     5     5     6   ar
     6     6     1   ar
     7     6     7    1
     8     7     8    1
     9     7     9    1
    10     5    10   ar
    11    10    11   ar
    12    11    12   ar
    13    12    13    1
    14    12    14   ar
    15    14     4   ar
    16    11    15    1
    17    15    16    1
    18    15    17    1
    19    15    18    1
    20    18    19    1
    21    19    20   ar
    22    20    21    1
    23    20    22   ar
    24    22    23    1
    25    22    24   ar
    26    24    25    1
    27    24    26   ar
    28    26    27   ar
    29    27    28    1
    30    27    19   ar
    31    26    29    1
    32    29    30    1
    33    29    31    1
    34    29    32    1
    35     2    33    1
    36    33    34    1
    37    33    35    1
