@<TRIPOS>MOLECULE
9_12e
 35 37 0 0 0
SMALL
USER_CHARGES
****
From 3DB ct
@<TRIPOS>ATOM
      1 N          10.1490    2.6040   12.8660 N.ar    1  LIG1       -0.6403
      2 C          10.7690    1.9700   11.8750 C.ar    1  LIG1        0.7485
      3 N          12.0410    2.1600   11.5390 N.ar    1  LIG1       -0.6691
      4 C          12.7380    3.0490   12.2400 C.ar    1  LIG1        0.6317
      5 C          12.2070    3.7840   13.3070 C.ar    1  LIG1       -0.3101
      6 C          10.8730    3.4880   13.5750 C.ar    1  LIG1        0.6057
      7 N          10.1830    4.1630   14.5750 N.pl3   1  LIG1       -0.7137
      8 H          10.7210    4.4980   15.3700 H       1  LIG1        0.3422
      9 H           9.2270    3.8750   14.7510 H       1  LIG1        0.3454
     10 N          12.9480    4.6960   14.0170 N.ar    1  LIG1       -0.2070
     11 C          14.2390    4.8640   13.6380 C.ar    1  LIG1        0.0842
     12 C          14.7510    4.1330   12.5790 C.ar    1  LIG1        0.2080
     13 H          15.7810    4.2520   12.2530 H       1  LIG1        0.0978
     14 N          14.0150    3.2270   11.8810 N.ar    1  LIG1       -0.4642
     15 C          15.0890    5.8630   14.3800 C.3     1  LIG1       -0.2631
     16 H          15.2730    5.5020   15.3970 H       1  LIG1        0.1284
     17 H          14.5410    6.8090   14.4560 H       1  LIG1        0.1111
     18 S          16.6790    6.1620   13.5180 S.3     1  LIG1       -0.0118
     19 C          16.1200    7.1620   12.1490 C.ar    1  LIG1       -0.1422
     20 C          17.0280    7.4790   11.1330 C.ar    1  LIG1       -0.0204
     21 H          18.0520    7.1100   11.1690 H       1  LIG1        0.1112
     22 C          16.6350    8.2690   10.0490 C.ar    1  LIG1       -0.2502
     23 H          17.3570    8.4910    9.2640 H       1  LIG1        0.1415
     24 C          15.3310    8.7700    9.9730 C.ar    1  LIG1        0.2123
     25 C          14.4240    8.4540   10.9890 C.ar    1  LIG1       -0.2817
     26 H          13.4000    8.8260   10.9490 H       1  LIG1        0.1427
     27 C          14.8190    7.6650   12.0740 C.ar    1  LIG1        0.0434
     28 H          14.0920    7.4610   12.8580 H       1  LIG1        0.0826
     29 C          14.8980    9.5870    8.7900 C.3     1  LIG1       -0.2296
     30 H          14.5320    8.9310    7.9950 H       1  LIG1        0.0715
     31 H          15.7320   10.1830    8.4040 H       1  LIG1        0.0601
     32 H          14.1010   10.2850    9.0680 H       1  LIG1        0.0620
     33 N          10.0520    1.0670   11.1550 N.pl3   1  LIG1       -0.7544
     34 H          10.4870    0.5680   10.3930 H       1  LIG1        0.3703
     35 H           9.0820    0.9030   11.3830 H       1  LIG1        0.3571
@<TRIPOS>BOND
     1     1     2   ar
     2     2     3   ar
     3     3     4   ar
     4     4     5   ar
     5     5     6   ar
     6     6     1   ar
     7     6     7    1
     8     7     8    1
     9     7     9    1
    10     5    10   ar
    11    10    11   ar
    12    11    12   ar
    13    12    13    1
    14    12    14   ar
    15    14     4   ar
    16    11    15    1
    17    15    16    1
    18    15    17    1
    19    15    18    1
    20    18    19    1
    21    19    20   ar
    22    20    21    1
    23    20    22   ar
    24    22    23    1
    25    22    24   ar
    26    24    25   ar
    27    25    26    1
    28    25    27   ar
    29    27    28    1
    30    27    19   ar
    31    24    29    1
    32    29    30    1
    33    29    31    1
    34    29    32    1
    35     2    33    1
    36    33    34    1
    37    33    35    1
