@<TRIPOS>MOLECULE
1g
 53 55 0 0 0
SMALL
GASTEIGER

@<TRIPOS>ATOM
      1 C           4.5620   -1.4484   -6.5562 C.3     1  LIG111     -0.0904
      2 H           4.5005   -1.6136   -7.6696 H       1  LIG111      0.0059
      3 H           5.6461   -1.3900   -6.2529 H       1  LIG111      0.0059
      4 C           3.8674   -2.5809   -5.8166 C.3     1  LIG111     -0.0605
      5 H           4.4291   -3.5285   -6.0437 H       1  LIG111      0.0253
      6 H           2.8194   -2.7207   -6.1920 H       1  LIG111      0.0253
      7 C           3.8638   -2.3488   -4.3095 C.3     1  LIG111     -0.0064
      8 H           4.9337   -2.3264   -3.9458 H       1  LIG111      0.0355
      9 C           3.2437   -0.9839   -3.9935 C.3     1  LIG111      0.0485
     10 H           2.1416   -1.0065   -4.2324 H       1  LIG111      0.0401
     11 C           3.9390    0.1328   -4.7792 C.3     1  LIG111     -0.0773
     12 H           5.0134    0.2197   -4.4406 H       1  LIG111      0.0067
     13 H           3.4184    1.1149   -4.5890 H       1  LIG111      0.0067
     14 N           3.9311   -0.1186   -6.2554 N.4     1  LIG111      0.3784
     15 H           2.9499   -0.1616   -6.5629 H       1  LIG111     -0.0822
     16 C           4.6157    0.9768   -6.9840 C.3     1  LIG111     -0.1032
     17 H           4.0911    1.9491   -6.7840 H       1  LIG111      0.0023
     18 H           4.5958    0.7618   -8.0865 H       1  LIG111      0.0023
     19 H           5.6805    1.0452   -6.6331 H       1  LIG111      0.0023
     20 C           3.3667   -0.6537   -2.5206 C.2     1  LIG111      0.3090
     21 O           2.3023   -1.0925   -1.7949 O.3     1  LIG111     -0.4645
     22 C           2.3034   -0.8364   -0.3712 C.3     1  LIG111      0.0928
     23 H           3.2193   -1.3436    0.0313 H       1  LIG111      0.0697
     24 H           1.3849   -1.2696    0.1047 H       1  LIG111      0.0697
     25 C           2.3603    0.6663   -0.1812 C.3     1  LIG111     -0.0146
     26 H           2.9279    1.0991   -1.0483 H       1  LIG111      0.0301
     27 H           2.9292    0.9092    0.7531 H       1  LIG111      0.0301
     28 C           0.9772    1.2853   -0.1185 C.3     1  LIG111     -0.0246
     29 H           0.4035    0.8121    0.7228 H       1  LIG111      0.0314
     30 H           0.4220    1.0541   -1.0679 H       1  LIG111      0.0314
     31 C           1.0448    2.7600    0.0681 C.ar    1  LIG111     -0.0472
     32 C           2.1254    3.4926   -0.4344 C.ar    1  LIG111     -0.0586
     33 H           2.9311    2.9786   -0.9773 H       1  LIG111      0.0620
     34 C           2.1891    4.8723   -0.2448 C.ar    1  LIG111     -0.0615
     35 H           3.0426    5.4423   -0.6405 H       1  LIG111      0.0618
     36 C           1.1744    5.5309    0.4494 C.ar    1  LIG111     -0.0617
     37 H           1.2273    6.6195    0.6000 H       1  LIG111      0.0618
     38 C           0.0940    4.8057    0.9534 C.ar    1  LIG111     -0.0615
     39 H          -0.7072    5.3225    1.5032 H       1  LIG111      0.0618
     40 C           0.0287    3.4267    0.7640 C.ar    1  LIG111     -0.0586
     41 H          -0.8220    2.8560    1.1656 H       1  LIG111      0.0620
     42 O           4.3059   -0.0783   -1.9803 O.2     1  LIG111     -0.2506
     43 C           3.1408   -3.4643   -3.6248 C.ar    1  LIG111     -0.0435
     44 C           3.7831   -4.2729   -2.6795 C.ar    1  LIG111     -0.0569
     45 H           4.8449   -4.1132   -2.4393 H       1  LIG111      0.0621
     46 C           3.0913   -5.2957   -2.0365 C.ar    1  LIG111     -0.0431
     47 H           3.6067   -5.9309   -1.2986 H       1  LIG111      0.0632
     48 C           1.7407   -5.5138   -2.3336 C.ar    1  LIG111      0.0410
     49 C           1.0890   -4.7085   -3.2744 C.ar    1  LIG111     -0.0431
     50 H           0.0261   -4.8779   -3.5106 H       1  LIG111      0.0632
     51 C           1.7907   -3.6906   -3.9164 C.ar    1  LIG111     -0.0569
     52 H           1.2717   -3.0642   -4.6588 H       1  LIG111      0.0621
     53 CL          0.8950   -6.7542   -1.5525 Cl      1  LIG111     -0.0835
@<TRIPOS>BOND
     1    18    16    1
     2     2     1    1
     3    16    17    1
     4    16    19    1
     5    16    14    1
     6    15    14    1
     7     1    14    1
     8     1     3    1
     9     1     4    1
    10    14    11    1
    11     6     4    1
    12     5     4    1
    13     4     7    1
    14    11    13    1
    15    11    12    1
    16    11     9    1
    17    52    51    1
    18     7     9    1
    19     7     8    1
    20     7    43    1
    21    10     9    1
    22     9    20    1
    23    51    43   ar
    24    51    49   ar
    25    43    44   ar
    26    50    49    1
    27    49    48   ar
    28    44    45    1
    29    44    46   ar
    30    20    42    2
    31    20    21    1
    32    48    46   ar
    33    48    53    1
    34    46    47    1
    35    21    22    1
    36    30    28    1
    37    26    25    1
    38    33    32    1
    39    35    34    1
    40    32    34   ar
    41    32    31   ar
    42    22    25    1
    43    22    23    1
    44    22    24    1
    45    34    36   ar
    46    25    28    1
    47    25    27    1
    48    28    31    1
    49    28    29    1
    50    31    40   ar
    51    36    37    1
    52    36    38   ar
    53    40    38   ar
    54    40    41    1
    55    38    39    1
