@<TRIPOS>MOLECULE
1l
 39 41 0 0 0
SMALL
GASTEIGER

@<TRIPOS>ATOM
      1 C           3.8963   -2.0480   -6.8477 C.3     1  LIG111     -0.0904
      2 H           3.9396   -2.5006   -7.8791 H       1  LIG111      0.0059
      3 H           4.8906   -1.5686   -6.6177 H       1  LIG111      0.0059
      4 C           3.5747   -3.1166   -5.8150 C.3     1  LIG111     -0.0605
      5 H           4.4220   -3.8561   -5.8150 H       1  LIG111      0.0253
      6 H           2.6471   -3.6785   -6.1054 H       1  LIG111      0.0253
      7 C           3.4196   -2.5327   -4.4155 C.3     1  LIG111     -0.0080
      8 H           4.4130   -2.0953   -4.1017 H       1  LIG111      0.0355
      9 C           2.3896   -1.3946   -4.4322 C.3     1  LIG111      0.0301
     10 H           1.3638   -1.8258   -4.6270 H       1  LIG111      0.0384
     11 C           2.7325   -0.3477   -5.5059 C.3     1  LIG111     -0.0790
     12 H           3.7128    0.1517   -5.2538 H       1  LIG111      0.0066
     13 H           1.9227    0.4357   -5.5482 H       1  LIG111      0.0066
     14 N           2.8615   -0.9593   -6.8652 N.4     1  LIG111      0.3784
     15 H           1.9581   -1.3885   -7.1072 H       1  LIG111     -0.0822
     16 C           3.1889    0.0722   -7.8807 C.3     1  LIG111     -0.1032
     17 H           2.3713    0.8422   -7.9064 H       1  LIG111      0.0023
     18 H           3.2790   -0.4160   -8.8883 H       1  LIG111      0.0023
     19 H           4.1610    0.5679   -7.6163 H       1  LIG111      0.0023
     20 C           2.3450   -0.6843   -3.1307 C.ar    1  LIG111      0.2292
     21 O           3.5463   -0.0613   -2.6865 O.2     1  LIG111     -0.3378
     22 N           3.3092    0.5158   -1.5311 N.ar    1  LIG111     -0.0616
     23 C           2.0065    0.2865   -1.2159 C.ar    1  LIG111      0.1687
     24 N           1.3783   -0.4888   -2.2398 N.ar    1  LIG111     -0.1962
     25 C           1.2894    0.7545   -0.0060 C.3     1  LIG111     -0.0012
     26 H           0.8989   -0.1235    0.5672 H       1  LIG111      0.0309
     27 H           0.4255    1.3990   -0.3089 H       1  LIG111      0.0309
     28 H           1.9695    1.3475    0.6550 H       1  LIG111      0.0309
     29 C           3.0363   -3.6075   -3.4495 C.ar    1  LIG111     -0.0436
     30 C           3.8622   -4.7180   -3.2361 C.ar    1  LIG111     -0.0569
     31 H           4.8074   -4.8243   -3.7890 H       1  LIG111      0.0621
     32 C           3.4986   -5.7049   -2.3242 C.ar    1  LIG111     -0.0431
     33 H           4.1521   -6.5771   -2.1635 H       1  LIG111      0.0632
     34 C           2.2965   -5.5834   -1.6139 C.ar    1  LIG111      0.0410
     35 C           1.4660   -4.4769   -1.8192 C.ar    1  LIG111     -0.0431
     36 H           0.5205   -4.3792   -1.2616 H       1  LIG111      0.0632
     37 C           1.8392   -3.4942   -2.7335 C.ar    1  LIG111     -0.0569
     38 H           1.1770   -2.6260   -2.8907 H       1  LIG111      0.0621
     39 CL          1.8504   -6.7810   -0.5047 Cl      1  LIG111     -0.0835
@<TRIPOS>BOND
     1    18    16    1
     2    17    16    1
     3    16    19    1
     4    16    14    1
     5     2     1    1
     6    15    14    1
     7    14     1    1
     8    14    11    1
     9     1     3    1
    10     1     4    1
    11     6     4    1
    12     4     5    1
    13     4     7    1
    14    13    11    1
    15    11    12    1
    16    11     9    1
    17    10     9    1
    18     9     7    1
    19     9    20    1
    20     7     8    1
    21     7    29    1
    22    31    30    1
    23    29    30   ar
    24    29    37   ar
    25    30    32   ar
    26    20    21   ar
    27    20    24   ar
    28    38    37    1
    29    37    35   ar
    30    21    22   ar
    31    32    33    1
    32    32    34   ar
    33    24    23   ar
    34    35    34   ar
    35    35    36    1
    36    34    39    1
    37    22    23   ar
    38    23    25    1
    39    27    25    1
    40    25    26    1
    41    25    28    1
