@<TRIPOS>MOLECULE
1t
 40 41 0 0 0
SMALL
GASTEIGER

@<TRIPOS>ATOM
      1 C           4.6189   -1.5349   -6.4404 C.3     1  LIG111     -0.0904
      2 H           4.5045   -1.7209   -7.5461 H       1  LIG111      0.0059
      3 H           5.7167   -1.4679   -6.1939 H       1  LIG111      0.0059
      4 C           3.9669   -2.6550   -5.6463 C.3     1  LIG111     -0.0609
      5 H           4.5165   -3.6065   -5.8841 H       1  LIG111      0.0253
      6 H           2.9033   -2.7968   -5.9755 H       1  LIG111      0.0253
      7 C           4.0300   -2.4011   -4.1450 C.3     1  LIG111     -0.0133
      8 H           5.1130   -2.4242   -3.8192 H       1  LIG111      0.0351
      9 C           3.4741   -1.0179   -3.7973 C.3     1  LIG111     -0.0147
     10 H           2.3593   -1.0322   -3.9676 H       1  LIG111      0.0321
     11 C           4.1072    0.0769   -4.6577 C.3     1  LIG111     -0.0844
     12 H           5.2023    0.1778   -4.4068 H       1  LIG111      0.0063
     13 H           3.5997    1.0613   -4.4480 H       1  LIG111      0.0063
     14 N           3.9985   -0.2041   -6.1267 N.4     1  LIG111      0.3781
     15 H           2.9997   -0.2593   -6.3659 H       1  LIG111     -0.0822
     16 C           4.6221    0.8796   -6.9227 C.3     1  LIG111     -0.1032
     17 H           4.1033    1.8508   -6.7011 H       1  LIG111      0.0023
     18 H           4.5252    0.6412   -8.0160 H       1  LIG111      0.0023
     19 H           5.7086    0.9676   -6.6544 H       1  LIG111      0.0023
     20 C           3.6925   -0.6722   -2.3197 C.3     1  LIG111      0.0941
     21 H           4.7869   -0.7476   -2.0746 H       1  LIG111      0.0700
     22 H           3.0944   -1.3707   -1.6717 H       1  LIG111      0.0700
     23 O           3.1798    0.6148   -1.9789 O.3     1  LIG111     -0.4646
     24 C           1.8355    0.8669   -2.1512 C.2     1  LIG111      0.3040
     25 C           1.4521    2.2464   -1.7539 C.3     1  LIG111      0.0332
     26 H           1.5571    2.9281   -2.6336 H       1  LIG111      0.0342
     27 H           2.1489    2.5878   -0.9458 H       1  LIG111      0.0342
     28 H           0.4054    2.2797   -1.3666 H       1  LIG111      0.0342
     29 O           1.1346   -0.0492   -2.5794 O.2     1  LIG111     -0.2512
     30 C           3.2874   -3.4766   -3.4133 C.ar    1  LIG111     -0.0439
     31 C           3.9717   -4.6298   -3.0096 C.ar    1  LIG111     -0.0569
     32 H           5.0539   -4.7253   -3.2064 H       1  LIG111      0.0621
     33 C           3.3020   -5.6534   -2.3432 C.ar    1  LIG111     -0.0431
     34 H           3.8488   -6.5579   -2.0321 H       1  LIG111      0.0632
     35 C           1.9347   -5.5251   -2.0720 C.ar    1  LIG111      0.0410
     36 C           1.2442   -4.3720   -2.4628 C.ar    1  LIG111     -0.0431
     37 H           0.1691   -4.2687   -2.2462 H       1  LIG111      0.0632
     38 C           1.9226   -3.3541   -3.1285 C.ar    1  LIG111     -0.0569
     39 H           1.3692   -2.4508   -3.4252 H       1  LIG111      0.0621
     40 CL          1.1124   -6.7664   -1.2659 Cl      1  LIG111     -0.0835
@<TRIPOS>BOND
     1    18    16    1
     2     2     1    1
     3    16    17    1
     4    16    19    1
     5    16    14    1
     6     1     3    1
     7     1    14    1
     8     1     4    1
     9    15    14    1
    10    14    11    1
    11     6     4    1
    12     5     4    1
    13     4     7    1
    14    11    13    1
    15    11    12    1
    16    11     9    1
    17     7     8    1
    18     7     9    1
    19     7    30    1
    20    10     9    1
    21     9    20    1
    22    39    38    1
    23    30    38   ar
    24    30    31   ar
    25    32    31    1
    26    38    36   ar
    27    31    33   ar
    28    26    25    1
    29    29    24    2
    30    36    37    1
    31    36    35   ar
    32    33    35   ar
    33    33    34    1
    34    20    21    1
    35    20    23    1
    36    20    22    1
    37    24    23    1
    38    24    25    1
    39    35    40    1
    40    25    28    1
    41    25    27    1
