@<TRIPOS>MOLECULE
2e
 62 66 0 0 0
SMALL
GASTEIGER

@<TRIPOS>ATOM
      1 C           4.3250   -1.8275   -6.4823 C.3     1  LIG111     -0.0904
      2 H           4.2759   -2.0215   -7.5686 H       1  LIG111      0.0059
      3 H           5.3919   -1.8281   -6.1988 H       1  LIG111      0.0059
      4 C           3.6217   -3.0045   -5.7523 C.3     1  LIG111     -0.0610
      5 H           4.1407   -3.9513   -5.9802 H       1  LIG111      0.0253
      6 H           2.5810   -3.0964   -6.1039 H       1  LIG111      0.0253
      7 C           3.6348   -2.7641   -4.2225 C.3     1  LIG111     -0.0160
      8 H           4.6880   -2.6858   -3.9051 H       1  LIG111      0.0350
      9 C           2.9560   -1.4003   -3.9030 C.3     1  LIG111     -0.0409
     10 H           1.9203   -1.3981   -4.2804 H       1  LIG111      0.0293
     11 C           3.7077   -0.2746   -4.6753 C.3     1  LIG111     -0.0871
     12 H           4.7487   -0.2135   -4.3184 H       1  LIG111      0.0062
     13 H           3.2266    0.6913   -4.4424 H       1  LIG111      0.0062
     14 N           3.7074   -0.5129   -6.1476 N.4     1  LIG111      0.3780
     15 H           2.6725   -0.5391   -6.4866 H       1  LIG111     -0.0822
     16 C           4.3775    0.6005   -6.8787 C.3     1  LIG111     -0.1032
     17 H           5.4486    0.6628   -6.6231 H       1  LIG111      0.0023
     18 H           3.9240    1.5750   -6.6316 H       1  LIG111      0.0023
     19 H           4.3010    0.4623   -7.9695 H       1  LIG111      0.0023
     20 C           2.8806   -1.1198   -2.3719 C.3     1  LIG111      0.0256
     21 H           3.7311   -1.6021   -1.8656 H       1  LIG111      0.0361
     22 H           1.9675   -1.5735   -1.9541 H       1  LIG111      0.0361
     23 C           2.8568    0.3602   -2.0717 C.2     1  LIG111      0.2136
     24 O           3.9358    0.9013   -1.8989 O.2     1  LIG111     -0.2758
     25 N           1.6652    1.0029   -1.9966 N.am    1  LIG111     -0.3097
     26 H           0.8957    0.6846   -2.5511 H       1  LIG111      0.1492
     27 C           1.4562    2.1742   -1.1337 C.3     1  LIG111      0.0353
     28 C           1.6563    1.8081    0.3646 C.3     1  LIG111     -0.0287
     29 H           2.6811    1.4592    0.5571 H       1  LIG111      0.0288
     30 H           0.9717    0.9905    0.6391 H       1  LIG111      0.0288
     31 C           1.3896    3.0508    1.2559 C.3     1  LIG111     -0.0386
     32 H           1.5459    2.7823    2.3159 H       1  LIG111      0.0302
     33 C          -0.0717    3.5320    1.0634 C.3     1  LIG111     -0.0472
     34 H          -0.7734    2.7328    1.3538 H       1  LIG111      0.0271
     35 H          -0.2713    4.4035    1.7082 H       1  LIG111      0.0271
     36 C          -0.2846    3.9125   -0.4242 C.3     1  LIG111     -0.0386
     37 H          -1.3265    4.2490   -0.5699 H       1  LIG111      0.0302
     38 C          -0.0095    2.6746   -1.3166 C.3     1  LIG111     -0.0287
     39 H          -0.7177    1.8733   -1.0520 H       1  LIG111      0.0288
     40 H          -0.1868    2.9397   -2.3717 H       1  LIG111      0.0288
     41 C           0.6836    5.0569   -0.8196 C.3     1  LIG111     -0.0472
     42 H           0.4924    5.9458   -0.1962 H       1  LIG111      0.0271
     43 H           0.5206    5.3445   -1.8713 H       1  LIG111      0.0271
     44 C           2.1429    4.5721   -0.6228 C.3     1  LIG111     -0.0386
     45 H           2.8359    5.3864   -0.9006 H       1  LIG111      0.0302
     46 C           2.4133    3.3363   -1.5227 C.3     1  LIG111     -0.0287
     47 H           2.2636    3.5952   -2.5829 H       1  LIG111      0.0288
     48 H           3.4662    3.0446   -1.3994 H       1  LIG111      0.0288
     49 C           2.3674    4.1908    0.8647 C.3     1  LIG111     -0.0472
     50 H           3.4089    3.8631    1.0168 H       1  LIG111      0.0271
     51 H           2.1970    5.0697    1.5082 H       1  LIG111      0.0271
     52 C           3.0014   -3.9688   -3.4991 C.ar    1  LIG111     -0.0440
     53 C           1.6526   -4.2803   -3.7171 C.ar    1  LIG111     -0.0569
     54 H           1.0300   -3.6346   -4.3279 H       1  LIG111      0.0621
     55 C           1.0837   -5.4264   -3.1551 C.ar    1  LIG111     -0.0431
     56 H           0.0465   -5.6757   -3.3552 H       1  LIG111      0.0632
     57 C           1.8506   -6.2548   -2.3332 C.ar    1  LIG111      0.0410
     58 C           3.1766   -5.9159   -2.0549 C.ar    1  LIG111     -0.0431
     59 H           3.7660   -6.5480   -1.3984 H       1  LIG111      0.0632
     60 C           3.7414   -4.7678   -2.6182 C.ar    1  LIG111     -0.0569
     61 H           4.7603   -4.5105   -2.3553 H       1  LIG111      0.0621
     62 CL          1.1523   -7.7095   -1.6524 Cl      1  LIG111     -0.0835
@<TRIPOS>BOND
     1    19    16    1
     2     2     1    1
     3    16    18    1
     4    16    17    1
     5    16    14    1
     6    15    14    1
     7     1     3    1
     8     1    14    1
     9     1     4    1
    10    14    11    1
    11     6     4    1
    12     5     4    1
    13     4     7    1
    14    11    13    1
    15    11    12    1
    16    11     9    1
    17    54    53    1
    18    10     9    1
    19     7     8    1
    20     7     9    1
    21     7    52    1
    22     9    20    1
    23    53    52   ar
    24    53    55   ar
    25    52    60   ar
    26    56    55    1
    27    55    57   ar
    28    60    61    1
    29    60    58   ar
    30    47    46    1
    31    26    25    1
    32    20    23    1
    33    20    22    1
    34    20    21    1
    35    40    38    1
    36    57    58   ar
    37    57    62    1
    38    23    25   am
    39    23    24    2
    40    58    59    1
    41    25    27    1
    42    43    41    1
    43    46    48    1
    44    46    27    1
    45    46    44    1
    46    38    27    1
    47    38    39    1
    48    38    36    1
    49    27    28    1
    50    45    44    1
    51    41    44    1
    52    41    36    1
    53    41    42    1
    54    44    49    1
    55    37    36    1
    56    36    33    1
    57    28    29    1
    58    28    30    1
    59    28    31    1
    60    49    50    1
    61    49    31    1
    62    49    51    1
    63    33    31    1
    64    33    34    1
    65    33    35    1
    66    31    32    1
