@<TRIPOS>MOLECULE
3e
 65 69 0 0 0
SMALL
GASTEIGER

@<TRIPOS>ATOM
      1 C           4.4215   -1.8793   -6.5739 C.3     1  LIG111     -0.0904
      2 H           4.2270   -2.0242   -7.6742 H       1  LIG111      0.0059
      3 H           5.5364   -1.8986   -6.4043 H       1  LIG111      0.0059
      4 C           3.7536   -2.9784   -5.7625 C.3     1  LIG111     -0.0610
      5 H           4.2139   -3.9561   -6.0704 H       1  LIG111      0.0253
      6 H           2.6585   -3.0363   -6.0000 H       1  LIG111      0.0253
      7 C           3.9529   -2.7694   -4.2627 C.3     1  LIG111     -0.0164
      8 H           5.0595   -2.8071   -4.0446 H       1  LIG111      0.0350
      9 C           3.4352   -1.3822   -3.8705 C.3     1  LIG111     -0.0487
     10 H           2.3250   -1.3551   -4.0774 H       1  LIG111      0.0289
     11 C           4.1249   -0.3056   -4.7101 C.3     1  LIG111     -0.0875
     12 H           5.2366   -0.3021   -4.5045 H       1  LIG111      0.0062
     13 H           3.7280    0.7158   -4.4389 H       1  LIG111      0.0062
     14 N           3.9324   -0.5160   -6.1840 N.4     1  LIG111      0.3780
     15 H           2.9253   -0.4735   -6.3839 H       1  LIG111     -0.0822
     16 C           4.6201    0.5442   -6.9597 C.3     1  LIG111     -0.1032
     17 H           4.2038    1.5456   -6.6661 H       1  LIG111      0.0023
     18 H           4.4564    0.3691   -8.0561 H       1  LIG111      0.0023
     19 H           5.7197    0.5243   -6.7327 H       1  LIG111      0.0023
     20 C           3.6067   -1.0696   -2.3891 C.3     1  LIG111     -0.0431
     21 H           4.5026   -1.6510   -2.0339 H       1  LIG111      0.0272
     22 H           2.7109   -1.4688   -1.8409 H       1  LIG111      0.0272
     23 C           3.8046    0.3898   -2.0314 C.3     1  LIG111      0.0242
     24 H           4.3107    0.9475   -2.8626 H       1  LIG111      0.0358
     25 H           4.4817    0.4531   -1.1380 H       1  LIG111      0.0358
     26 C           2.4708    1.0874   -1.7701 C.2     1  LIG111      0.2134
     27 O           1.6153    1.1319   -2.6885 O.2     1  LIG111     -0.2758
     28 N           2.2685    1.6384   -0.5381 N.am    1  LIG111     -0.3097
     29 H           2.7331    1.2447    0.2467 H       1  LIG111      0.1492
     30 C           1.4306    2.8114   -0.2713 C.3     1  LIG111      0.0353
     31 C           1.9734    4.0216   -1.0759 C.3     1  LIG111     -0.0287
     32 H           1.9574    3.7881   -2.1719 H       1  LIG111      0.0288
     33 H           3.0320    4.2350   -0.7763 H       1  LIG111      0.0288
     34 C           1.1164    5.2525   -0.8109 C.3     1  LIG111     -0.0386
     35 H           1.5287    6.1145   -1.4019 H       1  LIG111      0.0302
     36 C           1.1496    5.5934    0.6739 C.3     1  LIG111     -0.0472
     37 H           2.2011    5.8092    0.9932 H       1  LIG111      0.0271
     38 H           0.5354    6.5101    0.8659 H       1  LIG111      0.0271
     39 C           0.5929    4.4210    1.4736 C.3     1  LIG111     -0.0386
     40 H           0.6161    4.6704    2.5685 H       1  LIG111      0.0302
     41 C           1.4453    3.1830    1.2315 C.3     1  LIG111     -0.0287
     42 H           2.4966    3.3829    1.5620 H       1  LIG111      0.0288
     43 H           1.0432    2.3243    1.8293 H       1  LIG111      0.0288
     44 C          -0.8456    4.1489    1.0460 C.3     1  LIG111     -0.0472
     45 H          -1.4774    5.0521    1.2435 H       1  LIG111      0.0271
     46 H          -1.2645    3.2965    1.6390 H       1  LIG111      0.0271
     47 C          -0.8749    3.8112   -0.4400 C.3     1  LIG111     -0.0386
     48 H          -1.9334    3.6089   -0.7570 H       1  LIG111      0.0302
     49 C          -0.3200    4.9814   -1.2427 C.3     1  LIG111     -0.0472
     50 H          -0.3504    4.7423   -2.3364 H       1  LIG111      0.0271
     51 H          -0.9455    5.8939   -1.0697 H       1  LIG111      0.0271
     52 C          -0.0371    2.5661   -0.6997 C.3     1  LIG111     -0.0287
     53 H          -0.4536    1.7021   -0.1196 H       1  LIG111      0.0288
     54 H          -0.0752    2.3114   -1.7899 H       1  LIG111      0.0288
     55 C           3.2730   -3.8646   -3.5045 C.ar    1  LIG111     -0.0441
     56 C           2.5818   -4.8845   -4.1692 C.ar    1  LIG111     -0.0569
     57 H           2.5201   -4.8886   -5.2679 H       1  LIG111      0.0621
     58 C           1.9653   -5.9070   -3.4527 C.ar    1  LIG111     -0.0431
     59 H           1.4235   -6.7052   -3.9847 H       1  LIG111      0.0632
     60 C           2.0403   -5.9154   -2.0549 C.ar    1  LIG111      0.0410
     61 C           2.7320   -4.9036   -1.3799 C.ar    1  LIG111     -0.0431
     62 H           2.7957   -4.9115   -0.2801 H       1  LIG111      0.0632
     63 C           3.3444   -3.8846   -2.1066 C.ar    1  LIG111     -0.0569
     64 H           3.8893   -3.0935   -1.5687 H       1  LIG111      0.0621
     65 CL          1.2925   -7.1561   -1.1786 Cl      1  LIG111     -0.0835
@<TRIPOS>BOND
     1    18    16    1
     2     2     1    1
     3    16    19    1
     4    16    17    1
     5    16    14    1
     6     1     3    1
     7     1    14    1
     8     1     4    1
     9    15    14    1
    10    14    11    1
    11     5     4    1
    12     6     4    1
    13     4     7    1
    14    57    56    1
    15    11    12    1
    16    11    13    1
    17    11     9    1
    18     7     8    1
    19     7     9    1
    20     7    55    1
    21    56    55   ar
    22    56    58   ar
    23    10     9    1
    24    59    58    1
    25     9    20    1
    26    55    63   ar
    27    58    60   ar
    28    24    23    1
    29    27    26    2
    30    20    21    1
    31    20    23    1
    32    20    22    1
    33    50    49    1
    34    32    31    1
    35    63    64    1
    36    63    61   ar
    37    60    61   ar
    38    60    65    1
    39    23    26    1
    40    23    25    1
    41    54    52    1
    42    26    28   am
    43    35    34    1
    44    61    62    1
    45    49    51    1
    46    49    34    1
    47    49    47    1
    48    31    34    1
    49    31    33    1
    50    31    30    1
    51    34    36    1
    52    48    47    1
    53    52    47    1
    54    52    30    1
    55    52    53    1
    56    28    30    1
    57    28    29    1
    58    47    44    1
    59    30    41    1
    60    36    38    1
    61    36    37    1
    62    36    39    1
    63    44    45    1
    64    44    39    1
    65    44    46    1
    66    41    39    1
    67    41    42    1
    68    41    43    1
    69    39    40    1
