@<TRIPOS>MOLECULE
Mol_3b
 43 44 0 0 0
SMALL
GASTEIGER
Energy = 0

@<TRIPOS>ATOM
      1 C           3.7764   -2.0818   -7.2663 C.3     1  LIG11      -0.0904
      2 H           3.2840   -2.2106   -8.2720 H       1  LIG11       0.0059
      3 H           4.8456   -2.4320   -7.3397 H       1  LIG11       0.0059
      4 C           3.0327   -2.8917   -6.2153 C.3     1  LIG11      -0.0610
      5 H           3.1143   -3.9762   -6.4992 H       1  LIG11       0.0253
      6 H           1.9415   -2.6299   -6.2149 H       1  LIG11       0.0253
      7 C           3.6230   -2.6839   -4.8255 C.3     1  LIG11      -0.0164
      8 H           4.6906   -3.0517   -4.8352 H       1  LIG11       0.0350
      9 C           3.6483   -1.1906   -4.4729 C.3     1  LIG11      -0.0487
     10 H           2.5879   -0.8223   -4.3841 H       1  LIG11       0.0289
     11 C           4.3771   -0.4044   -5.5669 C.3     1  LIG11      -0.0875
     12 H           5.4624   -0.7067   -5.6016 H       1  LIG11       0.0062
     13 H           4.3286    0.7036   -5.3425 H       1  LIG11       0.0062
     14 N           3.7948   -0.6210   -6.9321 N.4     1  LIG11       0.3780
     15 H           2.8216   -0.2900   -6.9135 H       1  LIG11      -0.0822
     16 C           4.5430    0.1531   -7.9525 C.3     1  LIG11      -0.1032
     17 H           4.4892    1.2479   -7.7093 H       1  LIG11       0.0023
     18 H           4.0842   -0.0240   -8.9629 H       1  LIG11       0.0023
     19 H           5.6153   -0.1791   -7.9577 H       1  LIG11       0.0023
     20 C           4.3653   -0.9663   -3.1450 C.3     1  LIG11      -0.0413
     21 H           4.9189    0.0095   -3.1734 H       1  LIG11       0.0273
     22 H           5.1359   -1.7805   -3.0343 H       1  LIG11       0.0273
     23 C           3.4581   -1.0130   -1.9321 C.3     1  LIG11       0.0451
     24 H           4.0718   -0.8499   -1.0025 H       1  LIG11       0.0378
     25 H           2.9582   -2.0130   -1.8304 H       1  LIG11       0.0378
     26 C           2.3793    0.0281   -1.9787 C.2     1  LIG11       0.3068
     27 O           1.2398   -0.0734   -2.4524 O.2     1  LIG11      -0.2509
     28 O           2.7439    1.2019   -1.4040 O.3     1  LIG11      -0.4679
     29 C           1.7777    2.2600   -1.3997 C.3     1  LIG11       0.0817
     30 H           1.4883    2.5098   -2.4482 H       1  LIG11       0.0661
     31 H           2.2016    3.1576   -0.8896 H       1  LIG11       0.0661
     32 H           0.9214    1.8233   -0.8280 H       1  LIG11       0.0661
     33 C           2.8484   -3.4792   -3.8229 C.ar    1  LIG11      -0.0441
     34 C           3.4675   -4.4698   -3.0507 C.ar    1  LIG11      -0.0569
     35 H           4.5391   -4.6846   -3.1784 H       1  LIG11       0.0621
     36 C           2.7390   -5.1947   -2.1117 C.ar    1  LIG11      -0.0431
     37 H           3.2345   -5.9712   -1.5075 H       1  LIG11       0.0632
     38 C           1.3745   -4.9300   -1.9382 C.ar    1  LIG11       0.0410
     39 C           0.7460   -3.9423   -2.7045 C.ar    1  LIG11      -0.0431
     40 H          -0.3269   -3.7315   -2.5687 H       1  LIG11       0.0632
     41 C           1.4843   -3.2224   -3.6417 C.ar    1  LIG11      -0.0569
     42 H           0.9824   -2.4447   -4.2384 H       1  LIG11       0.0621
     43 CL          0.4850   -5.8085   -0.7972 Cl      1  LIG11      -0.0835
@<TRIPOS>BOND
     1    18    16    1
     2     2     1    1
     3    19    16    1
     4    16    17    1
     5    16    14    1
     6     3     1    1
     7     1    14    1
     8     1     4    1
     9    14    15    1
    10    14    11    1
    11     5     4    1
    12     4     6    1
    13     4     7    1
    14    12    11    1
    15    11    13    1
    16    11     9    1
    17     8     7    1
    18     7     9    1
    19     7    33    1
    20     9    10    1
    21     9    20    1
    22    42    41    1
    23    33    41   ar
    24    33    34   ar
    25    41    39   ar
    26    35    34    1
    27    21    20    1
    28    20    22    1
    29    20    23    1
    30    34    36   ar
    31    39    40    1
    32    39    38   ar
    33    27    26    2
    34    30    29    1
    35    36    38   ar
    36    36    37    1
    37    26    23    1
    38    26    28    1
    39    38    43    1
    40    23    25    1
    41    23    24    1
    42    28    29    1
    43    29    31    1
    44    29    32    1
