@<TRIPOS>MOLECULE
02
 35 38 0 0 0
SMALL
USER_CHARGES
****
From 3DB ct
@<TRIPOS>ATOM
      1 C           0.2620    2.1700    0.0290 C.ar    1  LIG1        0.0575
      2 C           0.0450    0.7830    0.1710 C.ar    1  LIG1        0.0666
      3 C           1.1560   -0.2300    0.2260 C.2     1  LIG1        0.1643
      4 N           2.2160   -0.1370    0.9630 N.2     1  LIG1       -0.3675
      5 C           2.3920    1.0490    1.7980 C.3     1  LIG1        0.1204
      6 H           3.2900    0.9050    2.4090 H       1  LIG1        0.0622
      7 H           1.5600    1.1740    2.5020 H       1  LIG1        0.0247
      8 C           2.5740    2.2440    0.9400 C.ar    1  LIG1        0.1920
      9 N           1.5650    2.7240    0.1280 N.ar    1  LIG1       -0.2601
     10 C           2.1130    3.8540   -0.4630 C.ar    1  LIG1        0.3566
     11 N           3.3400    4.0380   -0.0060 N.ar    1  LIG1       -0.2529
     12 N           3.6290    3.0300    0.8690 N.ar    1  LIG1       -0.2229
     13 C           1.4840    4.6740   -1.5280 C.3     1  LIG1       -0.3255
     14 H           2.2580    5.1630   -2.1280 H       1  LIG1        0.1134
     15 H           0.8600    5.4600   -1.0940 H       1  LIG1        0.1031
     16 H           0.8830    4.0660   -2.2100 H       1  LIG1        0.1099
     17 C           1.0460   -1.4460   -0.6450 C.ar    1  LIG1        0.0522
     18 C           1.4880   -2.6810   -0.1550 C.ar    1  LIG1       -0.1502
     19 H           1.8940   -2.7620    0.8520 H       1  LIG1        0.1336
     20 C           1.4020   -3.8220   -0.9540 C.ar    1  LIG1       -0.0616
     21 H           1.7400   -4.7830   -0.5690 H       1  LIG1        0.0995
     22 C           0.8850   -3.7320   -2.2460 C.ar    1  LIG1       -0.1122
     23 H           0.8190   -4.6230   -2.8690 H       1  LIG1        0.1086
     24 C           0.4570   -2.5010   -2.7440 C.ar    1  LIG1       -0.0833
     25 H           0.0630   -2.4320   -3.7560 H       1  LIG1        0.1040
     26 C           0.5400   -1.3560   -1.9490 C.ar    1  LIG1       -0.1540
     27 H           0.2200   -0.4040   -2.3650 H       1  LIG1        0.1076
     28 C          -1.2710    0.2870    0.1850 C.ar    1  LIG1        0.0828
     29 H          -1.4590   -0.7770    0.3160 H       1  LIG1        0.0821
     30 C          -2.3510    1.1500    0.0210 C.ar    1  LIG1       -0.4130
     31 C          -2.1400    2.5130   -0.1500 C.ar    1  LIG1        0.1658
     32 H          -2.9810    3.1930   -0.2680 H       1  LIG1        0.0668
     33 C          -0.8390    3.0250   -0.1400 C.ar    1  LIG1       -0.1915
     34 H          -0.7290    4.1040   -0.2060 H       1  LIG1        0.1277
     35 CL         -3.9550    0.5270    0.0280 Cl      1  LIG1        0.0936
@<TRIPOS>BOND
     1     1     2   ar
     2     2     3    1
     3     3     4    2
     4     4     5    1
     5     5     6    1
     6     5     7    1
     7     5     8    1
     8     8     9   ar
     9     9     1    1
    10     9    10   ar
    11    10    11   ar
    12    11    12   ar
    13    12     8   ar
    14    10    13    1
    15    13    14    1
    16    13    15    1
    17    13    16    1
    18     3    17    1
    19    17    18   ar
    20    18    19    1
    21    18    20   ar
    22    20    21    1
    23    20    22   ar
    24    22    23    1
    25    22    24   ar
    26    24    25    1
    27    24    26   ar
    28    26    27    1
    29    26    17   ar
    30     2    28   ar
    31    28    29    1
    32    28    30   ar
    33    30    31   ar
    34    31    32    1
    35    31    33   ar
    36    33    34    1
    37    33     1   ar
    38    30    35    1
