@<TRIPOS>MOLECULE
04
 30 32 0 0 0
SMALL
USER_CHARGES
****
From 3DB ct
@<TRIPOS>ATOM
      1 C          -2.1060    2.4660   -0.2050 C.ar    1  LIG1        0.2484
      2 H          -2.9380    3.1440   -0.3820 H       1  LIG1        0.0638
      3 C          -2.3220    1.1020   -0.0470 C.ar    1  LIG1       -0.5306
      4 C          -1.2490    0.2380    0.1600 C.ar    1  LIG1        0.1770
      5 H          -1.4450   -0.8270    0.2560 H       1  LIG1        0.0680
      6 C           0.0640    0.7390    0.2280 C.ar    1  LIG1       -0.1040
      7 C           0.2820    2.1260    0.1300 C.ar    1  LIG1        0.3994
      8 C          -0.8080    2.9730   -0.1240 C.ar    1  LIG1       -0.3835
      9 H          -0.6620    4.0470   -0.2310 H       1  LIG1        0.1588
     10 N           1.5330    2.7570    0.2430 N.am    1  LIG1       -0.6211
     11 H           1.6250    3.6970   -0.1320 H       1  LIG1        0.3415
     12 C           2.6420    2.2930    0.9010 C.2     1  LIG1        0.4607
     13 C           2.4700    1.0520    1.7580 C.3     1  LIG1        0.1839
     14 H           3.3780    0.9220    2.3560 H       1  LIG1        0.0378
     15 H           1.6430    1.1790    2.4670 H       1  LIG1        0.0085
     16 N           2.3000   -0.1250    0.9100 N.2     1  LIG1       -0.4225
     17 C           1.1910   -0.2480    0.2570 C.2     1  LIG1        0.0501
     18 C           1.0510   -1.4670   -0.5880 C.ar    1  LIG1        0.5658
     19 C           1.5130   -2.6830   -0.0650 C.ar    1  LIG1       -0.4004
     20 H           1.9580   -2.7290    0.9270 H       1  LIG1        0.1898
     21 C           1.3930   -3.8530   -0.8160 C.ar    1  LIG1        0.0564
     22 H           1.7500   -4.7990   -0.4120 H       1  LIG1        0.0912
     23 C           0.8120   -3.8110   -2.0830 C.ar    1  LIG1       -0.2251
     24 H           0.7190   -4.7250   -2.6690 H       1  LIG1        0.1274
     25 C           0.3500   -2.6000   -2.6050 C.ar    1  LIG1        0.2017
     26 H          -0.0940   -2.5840   -3.5980 H       1  LIG1        0.0560
     27 C           0.4660   -1.4230   -1.8600 C.ar    1  LIG1       -0.6073
     28 CL         -0.0760    0.0500   -2.5820 Cl      1  LIG1        0.1121
     29 O           3.7090    2.9130    0.8460 O.2     1  LIG1       -0.4034
     30 CL         -3.9220    0.4730   -0.1360 Cl      1  LIG1        0.0998
@<TRIPOS>BOND
     1     2     1    1
     2     1     3   ar
     3     3     4   ar
     4     4     5    1
     5     4     6   ar
     6     6     7   ar
     7     7     8   ar
     8     8     9    1
     9     8     1   ar
    10     7    10    1
    11    10    11    1
    12    10    12   am
    13    12    13    1
    14    13    14    1
    15    13    15    1
    16    13    16    1
    17    16    17    2
    18    17     6    1
    19    17    18    1
    20    18    19   ar
    21    19    20    1
    22    19    21   ar
    23    21    22    1
    24    21    23   ar
    25    23    24    1
    26    23    25   ar
    27    25    26    1
    28    25    27   ar
    29    27    18   ar
    30    27    28    1
    31    12    29    2
    32     3    30    1
