@<TRIPOS>MOLECULE
12
 35 37 0 0 0
SMALL
USER_CHARGES
****
From 3DB ct
@<TRIPOS>ATOM
      1 C          -2.1000    2.4800   -0.2560 C.ar    1  LIG1       -0.0754
      2 H          -2.9140    3.1750   -0.4460 H       1  LIG1        0.1725
      3 C          -2.3300    1.1120   -0.0930 C.ar    1  LIG1       -0.0419
      4 C          -1.2590    0.2360    0.1320 C.ar    1  LIG1       -0.1101
      5 H          -1.4460   -0.8300    0.2330 H       1  LIG1        0.1713
      6 C           0.0560    0.7340    0.2120 C.ar    1  LIG1       -0.1122
      7 C           0.2840    2.1190    0.1100 C.ar    1  LIG1        0.3496
      8 C          -0.7960    2.9740   -0.1610 C.ar    1  LIG1       -0.2285
      9 H          -0.6390    4.0460   -0.2720 H       1  LIG1        0.1411
     10 N           1.5380    2.7410    0.2360 N.am    1  LIG1       -0.6504
     11 H           1.6410    3.6780   -0.1470 H       1  LIG1        0.3558
     12 C           2.6380    2.2840    0.9170 C.2     1  LIG1        0.4514
     13 C           2.4420    1.0400    1.7910 C.3     1  LIG1        0.3957
     14 H           1.5750    1.1850    2.4480 H       1  LIG1       -0.0151
     15 N           2.2760   -0.1330    0.9300 N.2     1  LIG1       -0.5074
     16 C           1.1800   -0.2550    0.2570 C.2     1  LIG1        0.1915
     17 C           1.0550   -1.4720   -0.5930 C.ar    1  LIG1        0.4748
     18 C           1.5060   -2.6900   -0.0640 C.ar    1  LIG1       -0.3550
     19 H           1.9330   -2.7390    0.9350 H       1  LIG1        0.1753
     20 C           1.3970   -3.8580   -0.8200 C.ar    1  LIG1        0.0406
     21 H           1.7460   -4.8050   -0.4110 H       1  LIG1        0.0960
     22 C           0.8390   -3.8140   -2.0970 C.ar    1  LIG1       -0.2121
     23 H           0.7550   -4.7260   -2.6850 H       1  LIG1        0.1271
     24 C           0.3870   -2.6010   -2.6230 C.ar    1  LIG1        0.1993
     25 H          -0.0400   -2.5830   -3.6240 H       1  LIG1        0.0539
     26 C           0.4920   -1.4260   -1.8750 C.ar    1  LIG1       -0.5646
     27 CL         -0.0370    0.0490   -2.6050 Cl      1  LIG1        0.0999
     28 C           3.6590    0.7860    2.6750 C.3     1  LIG1       -0.3105
     29 H           3.8470    1.6390    3.3360 H       1  LIG1        0.0582
     30 H           4.5620    0.6210    2.0760 H       1  LIG1        0.0989
     31 H           3.5070   -0.1030    3.2960 H       1  LIG1        0.0937
     32 O           3.6980    2.9160    0.8610 O.2     1  LIG1       -0.3877
     33 N          -3.6990    0.5870   -0.1790 N.pl3   1  LIG1        0.5799
     34 O          -4.6290    1.3900   -0.3820 O.2     1  LIG1       -0.3773
     35 O          -3.8710   -0.6390   -0.0430 O.2     1  LIG1       -0.3782
@<TRIPOS>BOND
     1     2     1    1
     2     1     3   ar
     3     3     4   ar
     4     4     5    1
     5     4     6   ar
     6     6     7   ar
     7     7     8   ar
     8     8     9    1
     9     8     1   ar
    10     7    10    1
    11    10    11    1
    12    10    12   am
    13    12    13    1
    14    13    14    1
    15    13    15    1
    16    15    16    2
    17    16     6    1
    18    16    17    1
    19    17    18   ar
    20    18    19    1
    21    18    20   ar
    22    20    21    1
    23    20    22   ar
    24    22    23    1
    25    22    24   ar
    26    24    25    1
    27    24    26   ar
    28    26    17   ar
    29    26    27    1
    30    13    28    1
    31    28    29    1
    32    28    30    1
    33    28    31    1
    34    12    32    2
    35     3    33    1
    36    33    34    2
    37    33    35    1
