@<TRIPOS>MOLECULE
21
 30 32 0 0 0
SMALL
USER_CHARGES
****
From 3DB ct
@<TRIPOS>ATOM
      1 C          -2.0860    2.5360   -0.2620 C.ar    1  LIG1       -0.1884
      2 H          -2.8920    3.2330   -0.4850 H       1  LIG1        0.1377
      3 C          -2.3780    1.2210    0.0860 C.ar    1  LIG1        0.1752
      4 H          -3.4180    0.9040    0.1410 H       1  LIG1        0.0556
      5 C          -1.3440    0.3190    0.3550 C.ar    1  LIG1       -0.5801
      6 C           0.0000    0.7320    0.2740 C.ar    1  LIG1        0.4562
      7 C           0.2830    2.0910    0.0360 C.ar    1  LIG1        0.0207
      8 C          -0.7620    2.9690   -0.2830 C.ar    1  LIG1       -0.1006
      9 H          -0.5600    4.0160   -0.5070 H       1  LIG1        0.1207
     10 N           1.5650    2.6690    0.1180 N.am    1  LIG1       -0.5549
     11 H           1.7120    3.5700   -0.3290 H       1  LIG1        0.3236
     12 C           2.6210    2.2260    0.8760 C.2     1  LIG1        0.5422
     13 C           2.3640    1.0470    1.8070 C.3     1  LIG1        0.0265
     14 H           3.2430    0.9210    2.4490 H       1  LIG1        0.0677
     15 H           1.5130    1.2420    2.4690 H       1  LIG1        0.0294
     16 N           2.1950   -0.1650    1.0060 N.2     1  LIG1       -0.3336
     17 C           1.1160   -0.2700    0.2950 C.2     1  LIG1        0.0324
     18 C           1.0320   -1.4560   -0.6210 C.ar    1  LIG1        0.0972
     19 C           0.5470   -1.3260   -1.9290 C.ar    1  LIG1       -0.1447
     20 H           0.2200   -0.3650   -2.3180 H       1  LIG1        0.1109
     21 C           0.4940   -2.4430   -2.7660 C.ar    1  LIG1       -0.1135
     22 H           0.1140   -2.3420   -3.7820 H       1  LIG1        0.1122
     23 C           0.9320   -3.6850   -2.3070 C.ar    1  LIG1       -0.1118
     24 H           0.8890   -4.5530   -2.9620 H       1  LIG1        0.1068
     25 C           1.4310   -3.8140   -1.0110 C.ar    1  LIG1       -0.0503
     26 H           1.7780   -4.7830   -0.6560 H       1  LIG1        0.0959
     27 C           1.4880   -2.7020   -0.1700 C.ar    1  LIG1       -0.1649
     28 H           1.8790   -2.8140    0.8390 H       1  LIG1        0.1334
     29 O           3.7100    2.8090    0.8370 O.2     1  LIG1       -0.4310
     30 CL         -1.8130   -1.2750    0.8450 Cl      1  LIG1        0.1295
@<TRIPOS>BOND
     1     2     1    1
     2     1     3   ar
     3     3     4    1
     4     3     5   ar
     5     5     6   ar
     6     6     7   ar
     7     7     8   ar
     8     8     9    1
     9     8     1   ar
    10     7    10    1
    11    10    11    1
    12    10    12   am
    13    12    13    1
    14    13    14    1
    15    13    15    1
    16    13    16    1
    17    16    17    2
    18    17     6    1
    19    17    18    1
    20    18    19   ar
    21    19    20    1
    22    19    21   ar
    23    21    22    1
    24    21    23   ar
    25    23    24    1
    26    23    25   ar
    27    25    26    1
    28    25    27   ar
    29    27    28    1
    30    27    18   ar
    31    12    29    2
    32     5    30    1
