@<TRIPOS>MOLECULE
32
 33 35 0 0 0
SMALL
USER_CHARGES
****
From 3DB ct
@<TRIPOS>ATOM
      1 C          -2.1420    2.5060   -0.1470 C.ar    1  LIG1        0.2930
      2 H          -2.9750    3.1910   -0.2810 H       1  LIG1        0.0556
      3 C          -2.3620    1.1470    0.0260 C.ar    1  LIG1       -0.5445
      4 C          -1.2860    0.2830    0.1910 C.ar    1  LIG1        0.2624
      5 H          -1.4760   -0.7810    0.3170 H       1  LIG1        0.0529
      6 C           0.0320    0.7790    0.1820 C.ar    1  LIG1       -0.3593
      7 C           0.2790    2.1620    0.0620 C.ar    1  LIG1        0.6304
      8 C          -0.8350    3.0060   -0.1310 C.ar    1  LIG1       -0.4305
      9 H          -0.7180    4.0840   -0.2280 H       1  LIG1        0.1635
     10 N           1.5860    2.7360    0.1300 N.am    1  LIG1       -0.8807
     11 C           2.6550    2.2340    0.8800 C.2     1  LIG1        0.7087
     12 C           2.3100    1.0690    1.8190 C.3     1  LIG1        0.3225
     13 H           1.4000    1.2920    2.3900 H       1  LIG1       -0.0149
     14 N           2.1750   -0.1370    0.9960 N.2     1  LIG1       -0.5216
     15 C           1.1320   -0.2330    0.2370 C.2     1  LIG1        0.3927
     16 C           1.0390   -1.4430   -0.6420 C.ar    1  LIG1        0.0071
     17 C           1.4890   -2.6770   -0.1550 C.ar    1  LIG1       -0.1403
     18 H           1.8880   -2.7610    0.8540 H       1  LIG1        0.1332
     19 C           1.4190   -3.8150   -0.9610 C.ar    1  LIG1       -0.0694
     20 H           1.7630   -4.7740   -0.5790 H       1  LIG1        0.0984
     21 C           0.9100   -3.7220   -2.2560 C.ar    1  LIG1       -0.0941
     22 H           0.8570   -4.6100   -2.8850 H       1  LIG1        0.1030
     23 C           0.4750   -2.4920   -2.7510 C.ar    1  LIG1       -0.0967
     24 H           0.0880   -2.4210   -3.7650 H       1  LIG1        0.1068
     25 C           0.5420   -1.3510   -1.9480 C.ar    1  LIG1       -0.1330
     26 H           0.2160   -0.4000   -2.3620 H       1  LIG1        0.1054
     27 C           3.4290    0.8110    2.8240 C.3     1  LIG1       -0.2935
     28 H           3.6080    1.6960    3.4440 H       1  LIG1        0.0528
     29 H           4.3690    0.5550    2.3220 H       1  LIG1        0.0969
     30 H           3.1700   -0.0240    3.4840 H       1  LIG1        0.0961
     31 O           3.7980    2.7100    0.8350 O.2     1  LIG1       -0.4286
     32 CL          1.9020    4.1940   -0.7270 Cl      1  LIG1        0.2226
     33 CL         -3.9680    0.5310    0.0240 Cl      1  LIG1        0.1032
@<TRIPOS>BOND
     1     2     1    1
     2     1     3   ar
     3     3     4   ar
     4     4     5    1
     5     4     6   ar
     6     6     7   ar
     7     7     8   ar
     8     8     9    1
     9     8     1   ar
    10     7    10    1
    11    10    11   am
    12    11    12    1
    13    12    13    1
    14    12    14    1
    15    14    15    2
    16    15     6    1
    17    15    16    1
    18    16    17   ar
    19    17    18    1
    20    17    19   ar
    21    19    20    1
    22    19    21   ar
    23    21    22    1
    24    21    23   ar
    25    23    24    1
    26    23    25   ar
    27    25    26    1
    28    25    16   ar
    29    12    27    1
    30    27    28    1
    31    27    29    1
    32    27    30    1
    33    11    31    2
    34    10    32    1
    35     3    33    1
