@<TRIPOS>MOLECULE
36
 33 35 0 0 0
SMALL
USER_CHARGES
****
From 3DB ct
@<TRIPOS>ATOM
      1 C          -2.1320    2.4860   -0.1630 C.ar    1  LIG1        0.1879
      2 H          -2.9690    3.1670   -0.3040 H       1  LIG1        0.0623
      3 C          -2.3470    1.1270    0.0120 C.ar    1  LIG1       -0.4313
      4 C          -1.2680    0.2670    0.1860 C.ar    1  LIG1        0.0974
      5 H          -1.4570   -0.7960    0.3160 H       1  LIG1        0.0798
      6 C           0.0480    0.7700    0.1870 C.ar    1  LIG1       -0.0636
      7 C           0.2870    2.1560    0.0570 C.ar    1  LIG1        0.1922
      8 C          -0.8290    2.9930   -0.1430 C.ar    1  LIG1       -0.2565
      9 H          -0.7180    4.0700   -0.2510 H       1  LIG1        0.1386
     10 N           1.5950    2.7460    0.1090 N.am    1  LIG1       -0.3167
     11 C           2.6450    2.2470    0.8840 C.2     1  LIG1        0.4735
     12 C           2.3240    1.0750    1.8020 C.3     1  LIG1        0.0320
     13 H           3.1610    0.9460    2.4980 H       1  LIG1        0.0780
     14 H           1.4380    1.2710    2.4160 H       1  LIG1        0.0238
     15 N           2.2080   -0.1350    0.9870 N.2     1  LIG1       -0.3785
     16 C           1.1530   -0.2370    0.2440 C.2     1  LIG1        0.3747
     17 C           1.0460   -1.4420   -0.6210 C.ar    1  LIG1       -0.4400
     18 C           0.5370   -1.3400   -1.9170 C.ar    1  LIG1        0.4854
     19 C           0.4420   -2.4640   -2.7360 C.ar    1  LIG1       -0.3540
     20 H           0.0430   -2.3670   -3.7420 H       1  LIG1        0.1752
     21 C           0.8650   -3.7060   -2.2600 C.ar    1  LIG1        0.0595
     22 H           0.7920   -4.5860   -2.8960 H       1  LIG1        0.1139
     23 C           1.3820   -3.8160   -0.9690 C.ar    1  LIG1       -0.3311
     24 H           1.7110   -4.7800   -0.5890 H       1  LIG1        0.1682
     25 C           1.4730   -2.6860   -0.1580 C.ar    1  LIG1        0.4869
     26 F           1.9510   -2.8300    1.0880 F       1  LIG1       -0.2371
     27 F           0.1430   -0.1550   -2.4070 F       1  LIG1       -0.2523
     28 O           3.7790    2.7420    0.8770 O.2     1  LIG1       -0.3998
     29 C           1.8290    3.9880   -0.6250 C.3     1  LIG1       -0.0752
     30 H           2.8960    4.1430   -0.8100 H       1  LIG1        0.0985
     31 H           1.4640    4.8290   -0.0260 H       1  LIG1        0.0518
     32 H           1.3240    3.9570   -1.5950 H       1  LIG1        0.0721
     33 CL         -3.9500    0.5020    0.0030 Cl      1  LIG1        0.0845
@<TRIPOS>BOND
     1     2     1    1
     2     1     3   ar
     3     3     4   ar
     4     4     5    1
     5     4     6   ar
     6     6     7   ar
     7     7     8   ar
     8     8     9    1
     9     8     1   ar
    10     7    10    1
    11    10    11   am
    12    11    12    1
    13    12    13    1
    14    12    14    1
    15    12    15    1
    16    15    16    2
    17    16     6    1
    18    16    17    1
    19    17    18   ar
    20    18    19   ar
    21    19    20    1
    22    19    21   ar
    23    21    22    1
    24    21    23   ar
    25    23    24    1
    26    23    25   ar
    27    25    17   ar
    28    25    26    1
    29    18    27    1
    30    11    28    2
    31    10    29    1
    32    29    30    1
    33    29    31    1
    34    29    32    1
    35     3    33    1
