@<TRIPOS>MOLECULE
38
 30 32 0 0 0
SMALL
USER_CHARGES
****
From 3DB ct
@<TRIPOS>ATOM
      1 C          -2.0980    2.4890   -0.2280 C.ar    1  LIG1       -0.3881
      2 C          -2.3360    1.1280   -0.0700 C.ar    1  LIG1        0.1601
      3 H          -3.3470    0.7310   -0.1240 H       1  LIG1        0.0543
      4 C          -1.2640    0.2590    0.1390 C.ar    1  LIG1       -0.2590
      5 H          -1.4740   -0.8040    0.2350 H       1  LIG1        0.1608
      6 C           0.0540    0.7490    0.2040 C.ar    1  LIG1       -0.0205
      7 C           0.2810    2.1350    0.1120 C.ar    1  LIG1        0.2325
      8 C          -0.8000    2.9920   -0.1450 C.ar    1  LIG1        0.0297
      9 H          -0.6380    4.0630   -0.2490 H       1  LIG1        0.0802
     10 N           1.5380    2.7520    0.2420 N.am    1  LIG1       -0.6973
     11 H           1.6480    3.6920   -0.1300 H       1  LIG1        0.3616
     12 C           2.6300    2.2750    0.9200 C.2     1  LIG1        0.5865
     13 C           2.4270    1.0340    1.7740 C.3     1  LIG1        0.0233
     14 H           3.3220    0.8950    2.3900 H       1  LIG1        0.0725
     15 H           1.5870    1.1680    2.4650 H       1  LIG1        0.0325
     16 N           2.2640   -0.1400    0.9190 N.2     1  LIG1       -0.3952
     17 C           1.1730   -0.2470    0.2320 C.2     1  LIG1        0.4911
     18 C           1.0450   -1.4550   -0.6260 C.ar    1  LIG1       -0.5599
     19 C           0.5270   -1.3540   -1.9180 C.ar    1  LIG1        0.5614
     20 C           0.4150   -2.4820   -2.7290 C.ar    1  LIG1       -0.3731
     21 H           0.0100   -2.3870   -3.7330 H       1  LIG1        0.1762
     22 C           0.8290   -3.7250   -2.2490 C.ar    1  LIG1        0.0643
     23 H           0.7440   -4.6090   -2.8800 H       1  LIG1        0.1125
     24 C           1.3550   -3.8330   -0.9610 C.ar    1  LIG1       -0.3214
     25 H           1.6790   -4.7980   -0.5790 H       1  LIG1        0.1646
     26 C           1.4640   -2.6990   -0.1570 C.ar    1  LIG1        0.5027
     27 F           1.9510   -2.8390    1.0850 F       1  LIG1       -0.2427
     28 F           0.1400   -0.1680   -2.4100 F       1  LIG1       -0.2693
     29 O           3.7060    2.8810    0.8840 O.2     1  LIG1       -0.4336
     30 CL         -3.4160    3.5590   -0.5120 Cl      1  LIG1        0.0932
@<TRIPOS>BOND
     1     1     2   ar
     2     2     3    1
     3     2     4   ar
     4     4     5    1
     5     4     6   ar
     6     6     7   ar
     7     7     8   ar
     8     8     9    1
     9     8     1   ar
    10     7    10    1
    11    10    11    1
    12    10    12   am
    13    12    13    1
    14    13    14    1
    15    13    15    1
    16    13    16    1
    17    16    17    2
    18    17     6    1
    19    17    18    1
    20    18    19   ar
    21    19    20   ar
    22    20    21    1
    23    20    22   ar
    24    22    23    1
    25    22    24   ar
    26    24    25    1
    27    24    26   ar
    28    26    18   ar
    29    26    27    1
    30    19    28    1
    31    12    29    2
    32     1    30    1
