@<TRIPOS>MOLECULE
41
 40 43 0 0 0
SMALL
USER_CHARGES
****
From 3DB ct
@<TRIPOS>ATOM
      1 C           0.2620    2.1650    0.0250 C.ar    1  LIG1        0.1184
      2 C           0.0400    0.7780    0.1690 C.ar    1  LIG1        0.0283
      3 C           1.1520   -0.2320    0.2250 C.2     1  LIG1        0.3409
      4 N           2.2070   -0.1400    0.9680 N.2     1  LIG1       -0.4073
      5 C           2.3860    1.0460    1.8080 C.3     1  LIG1        0.2418
      6 H           1.5210    1.1900    2.4680 H       1  LIG1        0.0184
      7 C           2.5790    2.2390    0.9310 C.ar    1  LIG1        0.2302
      8 N           1.5690    2.7130    0.1160 N.ar    1  LIG1       -0.3803
      9 C           2.1180    3.8320   -0.4950 C.ar    1  LIG1        0.4069
     10 N           3.3470    4.0180   -0.0470 N.ar    1  LIG1       -0.2802
     11 N           3.6360    3.0220    0.8400 N.ar    1  LIG1       -0.1865
     12 C           1.4870    4.6370   -1.5710 C.3     1  LIG1       -0.3105
     13 H           0.8800    4.0190   -2.2410 H       1  LIG1        0.1116
     14 H           2.2610    5.1120   -2.1830 H       1  LIG1        0.1107
     15 H           0.8680    5.4330   -1.1480 H       1  LIG1        0.0945
     16 C           3.6000    0.7930    2.7000 C.3     1  LIG1       -0.2573
     17 H           3.7900    1.6470    3.3600 H       1  LIG1        0.0563
     18 H           4.5050    0.6150    2.1090 H       1  LIG1        0.0809
     19 H           3.4390   -0.0900    3.3280 H       1  LIG1        0.0924
     20 C           1.0480   -1.4440   -0.6420 C.ar    1  LIG1       -0.2488
     21 C           1.4930   -2.6780   -0.1530 C.ar    1  LIG1       -0.0194
     22 H           1.8980   -2.7600    0.8540 H       1  LIG1        0.1247
     23 C           1.4080   -3.8180   -0.9560 C.ar    1  LIG1       -0.1452
     24 H           1.7480   -4.7790   -0.5730 H       1  LIG1        0.1194
     25 C           0.8920   -3.7280   -2.2500 C.ar    1  LIG1       -0.0197
     26 H           0.8290   -4.6170   -2.8740 H       1  LIG1        0.1132
     27 C           0.4640   -2.4960   -2.7470 C.ar    1  LIG1       -0.2713
     28 H           0.0720   -2.4160   -3.7570 H       1  LIG1        0.1587
     29 C           0.5480   -1.3610   -1.9440 C.ar    1  LIG1        0.3917
     30 F           0.1580   -0.1840   -2.4590 F       1  LIG1       -0.2555
     31 C          -1.2770    0.2820    0.1830 C.ar    1  LIG1       -0.2087
     32 H          -1.4550   -0.7830    0.3190 H       1  LIG1        0.1903
     33 C          -2.3600    1.1550    0.0200 C.ar    1  LIG1        0.0853
     34 C          -2.1410    2.5250   -0.1510 C.ar    1  LIG1       -0.1282
     35 H          -2.9700    3.2200   -0.2700 H       1  LIG1        0.1716
     36 C          -0.8350    3.0260   -0.1420 C.ar    1  LIG1       -0.1054
     37 H          -0.7170    4.1050   -0.2090 H       1  LIG1        0.1308
     38 N          -3.7320    0.6300    0.0280 N.pl3   1  LIG1        0.5310
     39 O          -4.6740    1.4350   -0.0970 O.2     1  LIG1       -0.3632
     40 O          -3.8930   -0.5970    0.1610 O.2     1  LIG1       -0.3605
@<TRIPOS>BOND
     1     1     2   ar
     2     2     3    1
     3     3     4    2
     4     4     5    1
     5     5     6    1
     6     5     7    1
     7     7     8   ar
     8     8     1    1
     9     8     9   ar
    10     9    10   ar
    11    10    11   ar
    12    11     7   ar
    13     9    12    1
    14    12    13    1
    15    12    14    1
    16    12    15    1
    17     5    16    1
    18    16    17    1
    19    16    18    1
    20    16    19    1
    21     3    20    1
    22    20    21   ar
    23    21    22    1
    24    21    23   ar
    25    23    24    1
    26    23    25   ar
    27    25    26    1
    28    25    27   ar
    29    27    28    1
    30    27    29   ar
    31    29    20   ar
    32    29    30    1
    33     2    31   ar
    34    31    32    1
    35    31    33   ar
    36    33    34   ar
    37    34    35    1
    38    34    36   ar
    39    36    37    1
    40    36     1   ar
    41    33    38    1
    42    38    39    2
    43    38    40    1
