@<TRIPOS>MOLECULE
48
 33 36 0 0 0
SMALL
USER_CHARGES
****
From 3DB ct
@<TRIPOS>ATOM
      1 C           0.2340    2.2100    0.1420 C.ar    1  LIG1       -0.0433
      2 C           0.0610    0.8040    0.1690 C.ar    1  LIG1        0.2318
      3 C           1.1440   -0.2320    0.1470 C.2     1  LIG1       -0.3468
      4 C           2.2850   -0.0980    0.8490 C.2     1  LIG1        0.1517
      5 H           3.0490   -0.8750    0.8120 H       1  LIG1        0.0720
      6 C           2.6500    1.0820    1.6860 C.3     1  LIG1       -0.3123
      7 H           3.6640    0.9280    2.0770 H       1  LIG1        0.1179
      8 H           1.9960    1.1360    2.5650 H       1  LIG1        0.1080
      9 C           2.6230    2.3630    0.9420 C.ar    1  LIG1        0.2827
     10 N           1.5040    2.8330    0.2850 N.ar    1  LIG1       -0.0450
     11 C           1.8800    4.0860   -0.1430 C.ar    1  LIG1       -0.0064
     12 H           1.2320    4.7470   -0.7020 H       1  LIG1        0.1920
     13 N           3.1290    4.3370    0.1830 N.ar    1  LIG1       -0.2197
     14 N           3.5990    3.2510    0.8670 N.ar    1  LIG1       -0.2344
     15 C           1.0570   -1.4780   -0.6640 C.ar    1  LIG1       -0.0769
     16 C           1.5130   -2.6870   -0.1180 C.ar    1  LIG1       -0.0042
     17 H           1.9150   -2.7200    0.8930 H       1  LIG1        0.1035
     18 C           1.4520   -3.8670   -0.8660 C.ar    1  LIG1       -0.2052
     19 H           1.8060   -4.8010   -0.4330 H       1  LIG1        0.1301
     20 C           0.9400   -3.8510   -2.1640 C.ar    1  LIG1       -0.0049
     21 H           0.8950   -4.7710   -2.7430 H       1  LIG1        0.1096
     22 C           0.4890   -2.6540   -2.7180 C.ar    1  LIG1       -0.2931
     23 H           0.0930   -2.6300   -3.7290 H       1  LIG1        0.1641
     24 C           0.5510   -1.4810   -1.9710 C.ar    1  LIG1        0.3623
     25 F           0.1240   -0.3390   -2.5340 F       1  LIG1       -0.2342
     26 C          -1.2600    0.3050    0.0950 C.ar    1  LIG1        0.0972
     27 H          -1.4450   -0.7680    0.1270 H       1  LIG1        0.0788
     28 C          -2.3590    1.1540   -0.0350 C.ar    1  LIG1       -0.4535
     29 C          -2.1770    2.5250   -0.1010 C.ar    1  LIG1        0.1923
     30 H          -3.0270    3.1960   -0.2050 H       1  LIG1        0.0583
     31 C          -0.8880    3.0530   -0.0150 C.ar    1  LIG1       -0.2000
     32 H          -0.7960    4.1370   -0.0310 H       1  LIG1        0.1321
     33 CL         -3.9470    0.4940   -0.1270 Cl      1  LIG1        0.0953
@<TRIPOS>BOND
     1     1     2   ar
     2     2     3    1
     3     3     4    2
     4     4     5    1
     5     4     6    1
     6     6     7    1
     7     6     8    1
     8     6     9    1
     9     9    10   ar
    10    10     1    1
    11    10    11   ar
    12    11    12    1
    13    11    13   ar
    14    13    14   ar
    15    14     9   ar
    16     3    15    1
    17    15    16   ar
    18    16    17    1
    19    16    18   ar
    20    18    19    1
    21    18    20   ar
    22    20    21    1
    23    20    22   ar
    24    22    23    1
    25    22    24   ar
    26    24    15   ar
    27    24    25    1
    28     2    26   ar
    29    26    27    1
    30    26    28   ar
    31    28    29   ar
    32    29    30    1
    33    29    31   ar
    34    31    32    1
    35    31     1   ar
    36    28    33    1
