@<TRIPOS>MOLECULE
62
 43 46 0 0 0
SMALL
USER_CHARGES
****
From 3DB ct
@<TRIPOS>ATOM
      1 C           0.2590    2.1000    0.0170 C.ar    1  LIG1       -0.0131
      2 C          -0.0030    0.7420    0.2630 C.ar    1  LIG1        0.2706
      3 C           1.0740   -0.2720    0.2390 C.2     1  LIG1        0.3309
      4 N           2.2040   -0.0620    0.9880 N.am    1  LIG1       -0.2865
      5 C           2.5170    1.0900    1.8280 C.3     1  LIG1       -0.0645
      6 H           1.7160    1.2000    2.5700 H       1  LIG1        0.0886
      7 C           2.5970    2.3020    0.9550 C.ar    1  LIG1       -0.0006
      8 N           1.5670    2.6510    0.0850 N.ar    1  LIG1       -0.1014
      9 C           1.9940    3.7540   -0.6130 C.ar    1  LIG1        0.1209
     10 H           1.4290    4.1890   -1.4270 H       1  LIG1        0.1703
     11 N           3.1390    4.2070   -0.1760 N.ar    1  LIG1       -0.3618
     12 C           3.5040    3.3660    0.8600 C.ar    1  LIG1       -0.0608
     13 C           4.6620    3.6850    1.7050 C.2     1  LIG1        0.7271
     14 O           5.3620    4.6810    1.5590 O.2     1  LIG1       -0.4440
     15 O           4.8960    2.7260    2.6500 O.3     1  LIG1       -0.4277
     16 C           6.0370    2.9690    3.4790 C.3     1  LIG1        0.0213
     17 H           6.9380    3.0130    2.8560 H       1  LIG1        0.0577
     18 H           5.9110    3.9220    4.0070 H       1  LIG1        0.0654
     19 C           6.1530    1.8270    4.4830 C.3     1  LIG1        0.1547
     20 H           6.2390    0.8750    3.9440 H       1  LIG1       -0.0130
     21 H           5.2220    1.7590    5.0620 H       1  LIG1        0.0125
     22 C           7.3450    2.0180    5.4170 C.3     1  LIG1       -0.2730
     23 H           8.2720    2.0530    4.8330 H       1  LIG1        0.0707
     24 H           7.2560    2.9760    5.9420 H       1  LIG1        0.0644
     25 H           7.3890    1.1960    6.1410 H       1  LIG1        0.0624
     26 C           3.8250    0.6650    2.5110 C.3     1  LIG1        0.1959
     27 H           3.9230    1.0790    3.5190 H       1  LIG1       -0.0102
     28 H           4.7060    0.9470    1.9230 H       1  LIG1        0.0132
     29 C           3.7550   -0.8540    2.5390 C.3     1  LIG1       -0.2432
     30 H           4.7320   -1.3260    2.6760 H       1  LIG1        0.0744
     31 H           3.0920   -1.1840    3.3480 H       1  LIG1        0.0764
     32 C           3.1400   -1.1560    1.1900 C.3     1  LIG1        0.1172
     33 H           3.8850   -1.1100    0.3880 H       1  LIG1        0.0298
     34 H           2.6450   -2.1320    1.1640 H       1  LIG1        0.0571
     35 O           0.9340   -1.2650   -0.4710 O.2     1  LIG1       -0.3932
     36 C          -1.3410    0.3050    0.3350 C.ar    1  LIG1       -0.4317
     37 C          -2.3940    1.1980    0.1060 C.ar    1  LIG1        0.1440
     38 H          -3.4260    0.8570    0.1650 H       1  LIG1        0.0599
     39 C          -2.1300    2.5270   -0.2040 C.ar    1  LIG1       -0.1494
     40 H          -2.9510    3.2160   -0.3880 H       1  LIG1        0.1337
     41 C          -0.8120    2.9790   -0.2430 C.ar    1  LIG1       -0.0930
     42 H          -0.6530    4.0410   -0.4280 H       1  LIG1        0.1202
     43 CL         -1.7890   -1.3100    0.7740 Cl      1  LIG1        0.1281
@<TRIPOS>BOND
     1     1     2   ar
     2     2     3    1
     3     3     4   am
     4     4     5    1
     5     5     6    1
     6     5     7    1
     7     7     8   ar
     8     8     1    1
     9     8     9   ar
    10     9    10    1
    11     9    11   ar
    12    11    12   ar
    13    12     7   ar
    14    12    13    1
    15    13    14    2
    16    13    15    1
    17    15    16    1
    18    16    17    1
    19    16    18    1
    20    16    19    1
    21    19    20    1
    22    19    21    1
    23    19    22    1
    24    22    23    1
    25    22    24    1
    26    22    25    1
    27     5    26    1
    28    26    27    1
    29    26    28    1
    30    26    29    1
    31    29    30    1
    32    29    31    1
    33    29    32    1
    34    32    33    1
    35    32    34    1
    36    32     4    1
    37     3    35    2
    38     2    36   ar
    39    36    37   ar
    40    37    38    1
    41    37    39   ar
    42    39    40    1
    43    39    41   ar
    44    41    42    1
    45    41     1   ar
    46    36    43    1
