@<TRIPOS>MOLECULE
66
 46 49 0 0 0
SMALL
USER_CHARGES
****
From 3DB ct
@<TRIPOS>ATOM
      1 C           0.2610    2.0990    0.0090 C.ar    1  LIG1       -0.0669
      2 C          -0.0080    0.7440    0.2760 C.ar    1  LIG1        0.3044
      3 C           1.0670   -0.2710    0.2470 C.2     1  LIG1        0.3855
      4 N           2.2010   -0.0640    0.9910 N.am    1  LIG1       -0.3682
      5 C           2.5190    1.0880    1.8300 C.3     1  LIG1        0.1272
      6 H           1.7230    1.2000    2.5750 H       1  LIG1        0.0496
      7 C           2.5960    2.2980    0.9530 C.ar    1  LIG1       -0.0780
      8 N           1.5720    2.6420    0.0730 N.ar    1  LIG1       -0.0820
      9 C           2.0080    3.7370   -0.6320 C.ar    1  LIG1        0.1096
     10 H           1.4530    4.1650   -1.4580 H       1  LIG1        0.1741
     11 N           3.1470    4.1960   -0.1860 N.ar    1  LIG1       -0.3638
     12 C           3.4990    3.3630    0.8620 C.ar    1  LIG1        0.0045
     13 C           4.6410    3.6920    1.7260 C.2     1  LIG1        0.6961
     14 O           5.3310    4.6920    1.5770 O.2     1  LIG1       -0.4446
     15 O           4.8530    2.7340    2.6700 O.3     1  LIG1       -0.5370
     16 C           5.9750    2.8100    3.5830 C.3     1  LIG1        0.5835
     17 C           7.3080    2.7410    2.8290 C.3     1  LIG1       -0.3328
     18 H           8.1510    2.6380    3.5190 H       1  LIG1        0.0835
     19 H           7.4840    3.6380    2.2270 H       1  LIG1        0.0954
     20 H           7.3190    1.8930    2.1360 H       1  LIG1        0.0589
     21 C           5.8430    1.5580    4.4630 C.3     1  LIG1       -0.3377
     22 H           6.6460    1.4940    5.2050 H       1  LIG1        0.0854
     23 H           5.8630    0.6480    3.8500 H       1  LIG1        0.0863
     24 H           4.8820    1.5530    4.9910 H       1  LIG1        0.0824
     25 C           5.8880    4.0500    4.4800 C.3     1  LIG1       -0.3273
     26 H           6.6360    4.0160    5.2810 H       1  LIG1        0.0729
     27 H           4.8940    4.1330    4.9340 H       1  LIG1        0.0823
     28 H           6.0550    4.9750    3.9180 H       1  LIG1        0.0958
     29 C           3.8330    0.6640    2.5050 C.3     1  LIG1        0.0995
     30 H           3.9280    1.0650    3.5180 H       1  LIG1        0.0171
     31 H           4.7120    0.9650    1.9220 H       1  LIG1        0.0313
     32 C           3.7790   -0.8560    2.5130 C.3     1  LIG1       -0.2489
     33 H           4.7610   -1.3200    2.6330 H       1  LIG1        0.0828
     34 H           3.1290   -1.2040    3.3250 H       1  LIG1        0.0798
     35 C           3.1500   -1.1500    1.1690 C.3     1  LIG1        0.1175
     36 H           3.8850   -1.0880    0.3590 H       1  LIG1        0.0351
     37 H           2.6640   -2.1300    1.1380 H       1  LIG1        0.0602
     38 O           0.9210   -1.2590   -0.4680 O.2     1  LIG1       -0.3962
     39 C          -1.3440    0.3080    0.3620 C.ar    1  LIG1       -0.5960
     40 C          -2.3820    1.2100    0.1220 C.ar    1  LIG1        0.6327
     41 C          -2.1220    2.5330   -0.2070 C.ar    1  LIG1       -0.3217
     42 H          -2.9500    3.2120   -0.3890 H       1  LIG1        0.1867
     43 C          -0.8040    2.9820   -0.2590 C.ar    1  LIG1       -0.0290
     44 H          -0.6410    4.0410   -0.4580 H       1  LIG1        0.1269
     45 F          -3.6630    0.8200    0.2080 F       1  LIG1       -0.2975
     46 CL         -1.7800   -1.3020    0.8350 Cl      1  LIG1        0.1808
@<TRIPOS>BOND
     1     1     2   ar
     2     2     3    1
     3     3     4   am
     4     4     5    1
     5     5     6    1
     6     5     7    1
     7     7     8   ar
     8     8     1    1
     9     8     9   ar
    10     9    10    1
    11     9    11   ar
    12    11    12   ar
    13    12     7   ar
    14    12    13    1
    15    13    14    2
    16    13    15    1
    17    15    16    1
    18    16    17    1
    19    17    18    1
    20    17    19    1
    21    17    20    1
    22    16    21    1
    23    21    22    1
    24    21    23    1
    25    21    24    1
    26    16    25    1
    27    25    26    1
    28    25    27    1
    29    25    28    1
    30     5    29    1
    31    29    30    1
    32    29    31    1
    33    29    32    1
    34    32    33    1
    35    32    34    1
    36    32    35    1
    37    35    36    1
    38    35    37    1
    39    35     4    1
    40     3    38    2
    41     2    39   ar
    42    39    40   ar
    43    40    41   ar
    44    41    42    1
    45    41    43   ar
    46    43    44    1
    47    43     1   ar
    48    40    45    1
    49    39    46    1
