@<TRIPOS>MOLECULE
68
 50 54 0 0 0
SMALL
USER_CHARGES
****
From 3DB ct
@<TRIPOS>ATOM
      1 C           0.2590    2.1000    0.0150 C.ar    1  LIG1        0.0061
      2 C          -0.0020    0.7430    0.2640 C.ar    1  LIG1        0.2351
      3 C           1.0760   -0.2710    0.2370 C.2     1  LIG1        0.3699
      4 N           2.2070   -0.0600    0.9860 N.am    1  LIG1       -0.3559
      5 C           2.5110    1.0910    1.8310 C.3     1  LIG1        0.2063
      6 H           1.7050    1.1990    2.5660 H       1  LIG1        0.0398
      7 C           2.5940    2.3030    0.9570 C.ar    1  LIG1       -0.1327
      8 N           1.5660    2.6500    0.0820 N.ar    1  LIG1       -0.0837
      9 C           1.9980    3.7500   -0.6190 C.ar    1  LIG1        0.1018
     10 H           1.4370    4.1820   -1.4370 H       1  LIG1        0.1766
     11 N           3.1430    4.2030   -0.1800 N.ar    1  LIG1       -0.3722
     12 C           3.5030    3.3630    0.8590 C.ar    1  LIG1        0.0640
     13 C           4.6610    3.6790    1.7040 C.2     1  LIG1        0.6422
     14 O           5.3620    4.6730    1.5520 O.2     1  LIG1       -0.4375
     15 O           4.8860    2.7220    2.6500 O.3     1  LIG1       -0.5342
     16 C           6.0240    2.9190    3.5050 C.3     1  LIG1        0.4580
     17 H           6.8600    3.3380    2.9300 H       1  LIG1        0.0181
     18 C           6.4450    1.5450    4.0350 C.3     1  LIG1       -0.2472
     19 H           6.7460    0.9040    3.1980 H       1  LIG1        0.0666
     20 H           5.5830    1.0450    4.4950 H       1  LIG1        0.0779
     21 C           7.5810    1.6530    5.0460 C.3     1  LIG1       -0.0473
     22 H           8.4850    2.0150    4.5410 H       1  LIG1        0.0362
     23 H           7.8140    0.6610    5.4460 H       1  LIG1        0.0330
     24 C           7.2270    2.5990    6.1910 C.3     1  LIG1       -0.0502
     25 H           6.4230    2.1580    6.7920 H       1  LIG1        0.0350
     26 H           8.0920    2.7160    6.8530 H       1  LIG1        0.0168
     27 C           6.7830    3.9670    5.6780 C.3     1  LIG1       -0.0533
     28 H           6.4600    4.5880    6.5220 H       1  LIG1        0.0291
     29 H           7.6370    4.4770    5.2160 H       1  LIG1        0.0340
     30 C           5.6520    3.8520    4.6620 C.3     1  LIG1       -0.1812
     31 H           5.3960    4.8460    4.2780 H       1  LIG1        0.0412
     32 H           4.7420    3.4830    5.1550 H       1  LIG1        0.0769
     33 C           3.8160    0.6690    2.5220 C.3     1  LIG1       -0.0617
     34 H           3.9010    1.0760    3.5340 H       1  LIG1        0.0641
     35 H           4.7020    0.9610    1.9470 H       1  LIG1        0.0648
     36 C           3.7550   -0.8510    2.5370 C.3     1  LIG1       -0.2058
     37 H           4.7340   -1.3190    2.6780 H       1  LIG1        0.0785
     38 H           3.0880   -1.1910    3.3380 H       1  LIG1        0.0763
     39 C           3.1500   -1.1470    1.1820 C.3     1  LIG1        0.1002
     40 H           3.8980   -1.0890    0.3840 H       1  LIG1        0.0429
     41 H           2.6620   -2.1260    1.1460 H       1  LIG1        0.0591
     42 O           0.9370   -1.2620   -0.4750 O.2     1  LIG1       -0.3965
     43 C          -1.3390    0.3070    0.3420 C.ar    1  LIG1       -0.4267
     44 C          -2.3930    1.1980    0.1120 C.ar    1  LIG1        0.1254
     45 H          -3.4240    0.8570    0.1730 H       1  LIG1        0.0650
     46 C          -2.1290    2.5270   -0.2000 C.ar    1  LIG1       -0.1252
     47 H          -2.9510    3.2160   -0.3820 H       1  LIG1        0.1278
     48 C          -0.8120    2.9800   -0.2430 C.ar    1  LIG1       -0.1094
     49 H          -0.6520    4.0410   -0.4290 H       1  LIG1        0.1218
     50 CL         -1.7850   -1.3060    0.7900 Cl      1  LIG1        0.1302
@<TRIPOS>BOND
     1     1     2   ar
     2     2     3    1
     3     3     4   am
     4     4     5    1
     5     5     6    1
     6     5     7    1
     7     7     8   ar
     8     8     1    1
     9     8     9   ar
    10     9    10    1
    11     9    11   ar
    12    11    12   ar
    13    12     7   ar
    14    12    13    1
    15    13    14    2
    16    13    15    1
    17    15    16    1
    18    16    17    1
    19    16    18    1
    20    18    19    1
    21    18    20    1
    22    18    21    1
    23    21    22    1
    24    21    23    1
    25    21    24    1
    26    24    25    1
    27    24    26    1
    28    24    27    1
    29    27    28    1
    30    27    29    1
    31    27    30    1
    32    30    31    1
    33    30    32    1
    34    30    16    1
    35     5    33    1
    36    33    34    1
    37    33    35    1
    38    33    36    1
    39    36    37    1
    40    36    38    1
    41    36    39    1
    42    39    40    1
    43    39    41    1
    44    39     4    1
    45     3    42    2
    46     2    43   ar
    47    43    44   ar
    48    44    45    1
    49    44    46   ar
    50    46    47    1
    51    46    48   ar
    52    48    49    1
    53    48     1   ar
    54    43    50    1
