@<TRIPOS>MOLECULE
74
 38 40 0 0 0
SMALL
USER_CHARGES
****
From 3DB ct
@<TRIPOS>ATOM
      1 C          -2.1380    2.5150   -0.1330 C.ar    1  LIG1       -0.0892
      2 H          -2.9750    3.1990   -0.2570 H       1  LIG1        0.1118
      3 C          -2.3710    1.1600    0.0520 C.ar    1  LIG1       -0.0959
      4 H          -3.3880    0.7750    0.0700 H       1  LIG1        0.1082
      5 C          -1.2920    0.2940    0.2050 C.ar    1  LIG1       -0.1642
      6 H          -1.4880   -0.7680    0.3410 H       1  LIG1        0.1349
      7 C           0.0300    0.7810    0.1770 C.ar    1  LIG1        0.0210
      8 C           0.2820    2.1620    0.0440 C.ar    1  LIG1        0.1307
      9 C          -0.8290    3.0080   -0.1390 C.ar    1  LIG1       -0.1616
     10 H          -0.7090    4.0820   -0.2450 H       1  LIG1        0.1342
     11 N           1.5970    2.7310    0.0920 N.am    1  LIG1       -0.3765
     12 C           2.6320    2.2270    0.8890 C.2     1  LIG1        0.4367
     13 C           2.2930    1.0640    1.8120 C.3     1  LIG1        0.0675
     14 H           3.1290    0.9280    2.5080 H       1  LIG1        0.0601
     15 H           1.4140    1.2840    2.4280 H       1  LIG1        0.0259
     16 N           2.1520   -0.1470    1.0120 N.2     1  LIG1       -0.3891
     17 C           1.1230   -0.2350    0.2380 C.2     1  LIG1        0.2523
     18 C           1.0340   -1.4430   -0.6450 C.ar    1  LIG1       -0.0007
     19 C           0.5140   -1.3570   -1.9420 C.ar    1  LIG1       -0.1286
     20 H           0.1700   -0.4090   -2.3470 H       1  LIG1        0.1049
     21 C           0.4580   -2.4970   -2.7480 C.ar    1  LIG1       -0.0842
     22 H           0.0590   -2.4290   -3.7570 H       1  LIG1        0.0996
     23 C           0.9260   -3.7190   -2.2660 C.ar    1  LIG1       -0.1097
     24 H           0.8870   -4.6040   -2.8970 H       1  LIG1        0.1031
     25 C           1.4610   -3.8050   -0.9800 C.ar    1  LIG1       -0.0636
     26 H           1.8390   -4.7550   -0.6110 H       1  LIG1        0.0967
     27 C           1.5210   -2.6680   -0.1720 C.ar    1  LIG1       -0.1362
     28 H           1.9510   -2.7390    0.8240 H       1  LIG1        0.1268
     29 O           3.7590    2.7310    0.9030 O.2     1  LIG1       -0.3843
     30 C           1.8950    3.9390   -0.6890 C.3     1  LIG1       -0.0975
     31 H           1.1750    4.0370   -1.5100 H       1  LIG1        0.0864
     32 H           2.8710    3.8000   -1.1720 H       1  LIG1        0.1222
     33 C           1.9420    5.2160    0.1700 C.3     1  LIG1        0.2740
     34 H           2.8210    5.1930    0.8230 H       1  LIG1        0.0361
     35 H           1.0650    5.2740    0.8230 H       1  LIG1       -0.0497
     36 N           2.0010    6.4280   -0.6510 N.3     1  LIG1       -0.7202
     37 H           2.1220    7.2390   -0.0440 H       1  LIG1        0.2596
     38 H           1.1170    6.5660   -1.1390 H       1  LIG1        0.2586
@<TRIPOS>BOND
     1     2     1    1
     2     1     3   ar
     3     3     4    1
     4     3     5   ar
     5     5     6    1
     6     5     7   ar
     7     7     8   ar
     8     8     9   ar
     9     9    10    1
    10     9     1   ar
    11     8    11    1
    12    11    12   am
    13    12    13    1
    14    13    14    1
    15    13    15    1
    16    13    16    1
    17    16    17    2
    18    17     7    1
    19    17    18    1
    20    18    19   ar
    21    19    20    1
    22    19    21   ar
    23    21    22    1
    24    21    23   ar
    25    23    24    1
    26    23    25   ar
    27    25    26    1
    28    25    27   ar
    29    27    28    1
    30    27    18   ar
    31    12    29    2
    32    11    30    1
    33    30    31    1
    34    30    32    1
    35    30    33    1
    36    33    34    1
    37    33    35    1
    38    33    36    1
    39    36    37    1
    40    36    38    1
