@<TRIPOS>MOLECULE
82
 36 38 0 0 0
SMALL
USER_CHARGES
****
From 3DB ct
@<TRIPOS>ATOM
      1 C          -2.1290    2.4750   -0.1740 C.ar    1  LIG1       -0.4032
      2 H          -2.9580    3.1660   -0.3230 H       1  LIG1        0.1621
      3 C          -2.3710    1.1160    0.0070 C.ar    1  LIG1        0.4682
      4 C          -1.2720    0.2720    0.1800 C.ar    1  LIG1       -0.2997
      5 H          -1.4480   -0.7940    0.3100 H       1  LIG1        0.1511
      6 C           0.0490    0.7720    0.1820 C.ar    1  LIG1        0.0161
      7 C           0.2900    2.1540    0.0510 C.ar    1  LIG1       -0.0548
      8 C          -0.8240    2.9860   -0.1550 C.ar    1  LIG1        0.0409
      9 H          -0.7160    4.0630   -0.2680 H       1  LIG1        0.1044
     10 N           1.5970    2.7430    0.1070 N.am    1  LIG1       -0.2443
     11 C           2.6440    2.2450    0.8870 C.2     1  LIG1        0.4430
     12 C           2.3190    1.0740    1.8050 C.3     1  LIG1        0.0409
     13 H           3.1530    0.9460    2.5040 H       1  LIG1        0.0694
     14 H           1.4310    1.2730    2.4160 H       1  LIG1        0.0327
     15 N           2.2040   -0.1360    0.9920 N.2     1  LIG1       -0.4087
     16 C           1.1510   -0.2390    0.2470 C.2     1  LIG1        0.3945
     17 C           1.0450   -1.4450   -0.6240 C.ar    1  LIG1       -0.2505
     18 C           1.4210   -2.7020   -0.1330 C.ar    1  LIG1       -0.0412
     19 H           1.7930   -2.8190    0.8830 H       1  LIG1        0.1288
     20 C           1.3060   -3.8290   -0.9500 C.ar    1  LIG1       -0.1271
     21 H           1.5980   -4.8070   -0.5700 H       1  LIG1        0.1115
     22 C           0.8140   -3.7060   -2.2510 C.ar    1  LIG1       -0.0485
     23 H           0.7260   -4.5870   -2.8850 H       1  LIG1        0.1106
     24 C           0.4340   -2.4560   -2.7390 C.ar    1  LIG1       -0.2442
     25 H           0.0540   -2.3530   -3.7510 H       1  LIG1        0.1449
     26 C           0.5480   -1.3310   -1.9240 C.ar    1  LIG1        0.3859
     27 F           0.2000   -0.1390   -2.4300 F       1  LIG1       -0.2540
     28 O           3.7780    2.7400    0.8840 O.2     1  LIG1       -0.4042
     29 C           1.8330    3.9860   -0.6260 C.3     1  LIG1       -0.0633
     30 H           2.9010    4.1420   -0.8060 H       1  LIG1        0.0893
     31 H           1.4650    4.8270   -0.0300 H       1  LIG1        0.0386
     32 H           1.3340    3.9540   -1.5990 H       1  LIG1        0.0667
     33 N          -3.6640    0.5880    0.0020 N.4     1  LIG1       -0.5686
     34 H          -4.4590    1.1980   -0.2110 H       1  LIG1        0.3602
     35 O          -3.9260   -0.7580    0.2120 O.3     1  LIG1       -0.2084
     36 H          -4.0610   -1.1130   -0.6940 H       1  LIG1        0.2614
@<TRIPOS>BOND
     1     2     1    1
     2     1     3   ar
     3     3     4   ar
     4     4     5    1
     5     4     6   ar
     6     6     7   ar
     7     7     8   ar
     8     8     9    1
     9     8     1   ar
    10     7    10    1
    11    10    11   am
    12    11    12    1
    13    12    13    1
    14    12    14    1
    15    12    15    1
    16    15    16    2
    17    16     6    1
    18    16    17    1
    19    17    18   ar
    20    18    19    1
    21    18    20   ar
    22    20    21    1
    23    20    22   ar
    24    22    23    1
    25    22    24   ar
    26    24    25    1
    27    24    26   ar
    28    26    17   ar
    29    26    27    1
    30    11    28    2
    31    10    29    1
    32    29    30    1
    33    29    31    1
    34    29    32    1
    35     3    33    1
    36    33    34    1
    37    33    35    1
    38    35    36    1
