@<TRIPOS>MOLECULE
84
 33 35 0 0 0
SMALL
USER_CHARGES
****
From 3DB ct
@<TRIPOS>ATOM
      1 C          -2.0790    2.4650   -0.3230 C.ar    1  LIG1        0.2139
      2 H          -2.8780    3.1500   -0.5980 H       1  LIG1        0.0670
      3 C          -2.3660    1.1550    0.0600 C.ar    1  LIG1       -0.5272
      4 C          -1.3370    0.2600    0.4100 C.ar    1  LIG1        0.4628
      5 C           0.0050    0.7100    0.3090 C.ar    1  LIG1       -0.4078
      6 C           0.2830    2.0660    0.0350 C.ar    1  LIG1        0.4302
      7 C          -0.7630    2.9210   -0.3230 C.ar    1  LIG1       -0.3608
      8 H          -0.5720    3.9630   -0.5760 H       1  LIG1        0.1579
      9 N           1.5580    2.6570    0.1130 N.am    1  LIG1       -0.6273
     10 H           1.6960    3.5530   -0.3470 H       1  LIG1        0.3328
     11 C           2.6190    2.2390    0.8770 C.2     1  LIG1        0.5272
     12 C           2.3850    1.0580    1.8110 C.3     1  LIG1        0.0263
     13 H           3.2690    0.9450    2.4470 H       1  LIG1        0.0747
     14 H           1.5350    1.2440    2.4770 H       1  LIG1        0.0387
     15 N           2.2270   -0.1550    1.0090 N.2     1  LIG1       -0.4177
     16 C           1.1400   -0.2770    0.3180 C.2     1  LIG1        0.4852
     17 C           1.0500   -1.4540   -0.6000 C.ar    1  LIG1       -0.2391
     18 C           1.5160   -2.7100   -0.1860 C.ar    1  LIG1       -0.0534
     19 H           1.9450   -2.8530    0.8030 H       1  LIG1        0.1236
     20 C           1.4180   -3.8080   -1.0450 C.ar    1  LIG1       -0.1187
     21 H           1.7800   -4.7830   -0.7230 H       1  LIG1        0.1128
     22 C           0.8510   -3.6600   -2.3120 C.ar    1  LIG1       -0.0508
     23 H           0.7760   -4.5180   -2.9780 H       1  LIG1        0.1138
     24 C           0.3790   -2.4140   -2.7230 C.ar    1  LIG1       -0.2406
     25 H          -0.0610   -2.2910   -3.7090 H       1  LIG1        0.1490
     26 C           0.4760   -1.3190   -1.8670 C.ar    1  LIG1        0.3636
     27 F           0.0400   -0.1290   -2.3070 F       1  LIG1       -0.2478
     28 O           3.6970    2.8410    0.8360 O.2     1  LIG1       -0.4208
     29 C          -1.6760   -1.1370    0.8650 C.3     1  LIG1       -0.3144
     30 H          -0.8720   -1.5750    1.4640 H       1  LIG1        0.0891
     31 H          -1.8820   -1.7820    0.0060 H       1  LIG1        0.0878
     32 H          -2.5490   -1.1350    1.5260 H       1  LIG1        0.0777
     33 CL         -4.0310    0.6810    0.0570 Cl      1  LIG1        0.0922
@<TRIPOS>BOND
     1     2     1    1
     2     1     3   ar
     3     3     4   ar
     4     4     5   ar
     5     5     6   ar
     6     6     7   ar
     7     7     8    1
     8     7     1   ar
     9     6     9    1
    10     9    10    1
    11     9    11   am
    12    11    12    1
    13    12    13    1
    14    12    14    1
    15    12    15    1
    16    15    16    2
    17    16     5    1
    18    16    17    1
    19    17    18   ar
    20    18    19    1
    21    18    20   ar
    22    20    21    1
    23    20    22   ar
    24    22    23    1
    25    22    24   ar
    26    24    25    1
    27    24    26   ar
    28    26    17   ar
    29    26    27    1
    30    11    28    2
    31     4    29    1
    32    29    30    1
    33    29    31    1
    34    29    32    1
    35     3    33    1
