@<TRIPOS>MOLECULE
92
 32 35 0 0 0
SMALL
USER_CHARGES
****
From 3DB ct
@<TRIPOS>ATOM
      1 C           0.0070    2.1190   -0.0190 C.ar    1  LIG1       -0.0822
      2 C          -0.1040    0.7180    0.1200 C.ar    1  LIG1        0.1341
      3 C           1.0870   -0.2070    0.1910 C.2     1  LIG1        0.1314
      4 N           2.1920   -0.0330    0.8400 N.2     1  LIG1       -0.4733
      5 C           2.4170    1.1510    1.6710 C.3     1  LIG1        0.3316
      6 H           3.3930    1.0460    2.1590 H       1  LIG1        0.0214
      7 H           1.6710    1.2070    2.4720 H       1  LIG1       -0.0311
      8 C           2.3940    2.3770    0.8370 C.ar    1  LIG1       -0.0246
      9 C           1.2910    2.7960    0.0650 C.ar    1  LIG1        0.0892
     10 N           1.6000    3.9530   -0.5450 N.ar    1  LIG1       -0.2114
     11 N           2.8730    4.1590   -0.1310 N.ar    1  LIG1       -0.0902
     12 H           3.4050    4.9740   -0.4390 H       1  LIG1        0.3281
     13 N           3.4100    3.2440    0.7120 N.ar    1  LIG1       -0.2164
     14 C           1.0030   -1.4560   -0.6230 C.ar    1  LIG1        0.3787
     15 C           1.5120   -2.6370   -0.0630 C.ar    1  LIG1       -0.3217
     16 H           1.9550   -2.6360    0.9310 H       1  LIG1        0.1716
     17 C           1.4430   -3.8320   -0.7800 C.ar    1  LIG1        0.0304
     18 H           1.8370   -4.7500   -0.3470 H       1  LIG1        0.0899
     19 C           0.8650   -3.8520   -2.0490 C.ar    1  LIG1       -0.2114
     20 H           0.8120   -4.7850   -2.6080 H       1  LIG1        0.1245
     21 C           0.3560   -2.6760   -2.6070 C.ar    1  LIG1        0.1579
     22 H          -0.0860   -2.7070   -3.6010 H       1  LIG1        0.0533
     23 C           0.4210   -1.4740   -1.8960 C.ar    1  LIG1       -0.4773
     24 CL         -0.1810   -0.0470   -2.6630 Cl      1  LIG1        0.0923
     25 C          -1.3850    0.1330    0.1170 C.ar    1  LIG1       -0.2214
     26 H          -1.5140   -0.9410    0.2390 H       1  LIG1        0.1376
     27 C          -2.5310    0.9140   -0.0410 C.ar    1  LIG1       -0.0705
     28 H          -3.5130    0.4450   -0.0430 H       1  LIG1        0.1124
     29 C          -2.4170    2.2900   -0.2030 C.ar    1  LIG1       -0.1495
     30 H          -3.3090    2.9010   -0.3300 H       1  LIG1        0.1224
     31 C          -1.1570    2.8890   -0.1910 C.ar    1  LIG1       -0.0345
     32 H          -1.0920    3.9720   -0.2990 H       1  LIG1        0.1090
@<TRIPOS>BOND
     1     1     2   ar
     2     2     3    1
     3     3     4    2
     4     4     5    1
     5     5     6    1
     6     5     7    1
     7     5     8    1
     8     8     9   ar
     9     9     1    1
    10     9    10   ar
    11    10    11   ar
    12    11    12    1
    13    11    13   ar
    14    13     8   ar
    15     3    14    1
    16    14    15   ar
    17    15    16    1
    18    15    17   ar
    19    17    18    1
    20    17    19   ar
    21    19    20    1
    22    19    21   ar
    23    21    22    1
    24    21    23   ar
    25    23    14   ar
    26    23    24    1
    27     2    25   ar
    28    25    26    1
    29    25    27   ar
    30    27    28    1
    31    27    29   ar
    32    29    30    1
    33    29    31   ar
    34    31    32    1
    35    31     1   ar
