@<TRIPOS>MOLECULE
97
 35 38 0 0 0
SMALL
USER_CHARGES
****
From 3DB ct
@<TRIPOS>ATOM
      1 C           0.2560    2.1840    0.0760 C.ar    1  LIG1        0.1708
      2 C           0.0540    0.7890    0.1660 C.ar    1  LIG1        0.0588
      3 C           1.1750   -0.2120    0.1900 C.2     1  LIG1        0.0813
      4 N           2.2470   -0.1330    0.9110 N.2     1  LIG1       -0.3792
      5 C           2.4270    1.0300    1.7770 C.3     1  LIG1        0.1719
      6 H           3.3370    0.8760    2.3680 H       1  LIG1        0.0502
      7 H           1.6060    1.1240    2.4990 H       1  LIG1        0.0183
      8 C           2.5810    2.2530    0.9570 C.ar    1  LIG1        0.1825
      9 N           1.5550    2.7480    0.1780 N.ar    1  LIG1       -0.3359
     10 C           2.0840    3.8990   -0.3900 C.ar    1  LIG1        0.4170
     11 N           3.3140    4.0840    0.0570 N.ar    1  LIG1       -0.2585
     12 N           3.6260    3.0530    0.8960 N.ar    1  LIG1       -0.2200
     13 C           1.4350    4.7380   -1.4290 C.3     1  LIG1       -0.4289
     14 H           2.1990    5.2520   -2.0220 H       1  LIG1        0.1328
     15 H           0.8060    5.5060   -0.9690 H       1  LIG1        0.1195
     16 H           0.8360    4.1400   -2.1210 H       1  LIG1        0.1608
     17 C           1.0490   -1.4190   -0.6790 C.ar    1  LIG1        0.3468
     18 C           1.4890   -2.6420   -0.1510 C.ar    1  LIG1       -0.2978
     19 H           1.9070   -2.6890    0.8530 H       1  LIG1        0.1700
     20 C           1.3820   -3.8100   -0.9060 C.ar    1  LIG1        0.0179
     21 H           1.7160   -4.7590   -0.4910 H       1  LIG1        0.0950
     22 C           0.8460   -3.7610   -2.1920 C.ar    1  LIG1       -0.1822
     23 H           0.7630   -4.6720   -2.7820 H       1  LIG1        0.1247
     24 C           0.4250   -2.5420   -2.7300 C.ar    1  LIG1        0.1057
     25 H           0.0230   -2.5190   -3.7410 H       1  LIG1        0.0739
     26 C           0.5290   -1.3660   -1.9800 C.ar    1  LIG1       -0.4191
     27 CL          0.0440    0.1110   -2.7360 Cl      1  LIG1        0.0600
     28 C          -1.2560    0.2780    0.1330 C.ar    1  LIG1        0.0720
     29 H          -1.4390   -0.7910    0.2150 H       1  LIG1        0.0879
     30 C          -2.3440    1.1360   -0.0080 C.ar    1  LIG1       -0.4301
     31 C          -2.1470    2.5080   -0.1140 C.ar    1  LIG1        0.1776
     32 H          -2.9950    3.1820   -0.2130 H       1  LIG1        0.0722
     33 C          -0.8530    3.0320   -0.0680 C.ar    1  LIG1       -0.2611
     34 H          -0.7550    4.1140   -0.0910 H       1  LIG1        0.1476
     35 CL         -3.9400    0.4940   -0.0540 Cl      1  LIG1        0.0973
@<TRIPOS>BOND
     1     1     2   ar
     2     2     3    1
     3     3     4    2
     4     4     5    1
     5     5     6    1
     6     5     7    1
     7     5     8    1
     8     8     9   ar
     9     9     1    1
    10     9    10   ar
    11    10    11   ar
    12    11    12   ar
    13    12     8   ar
    14    10    13    1
    15    13    14    1
    16    13    15    1
    17    13    16    1
    18     3    17    1
    19    17    18   ar
    20    18    19    1
    21    18    20   ar
    22    20    21    1
    23    20    22   ar
    24    22    23    1
    25    22    24   ar
    26    24    25    1
    27    24    26   ar
    28    26    17   ar
    29    26    27    1
    30     2    28   ar
    31    28    29    1
    32    28    30   ar
    33    30    31   ar
    34    31    32    1
    35    31    33   ar
    36    33    34    1
    37    33     1   ar
    38    30    35    1
