@<TRIPOS>MOLECULE
133593
 26 28 0 0 0
SMALL
GASTEIGER
Energy = 0

@<TRIPOS>ATOM
      1 C           4.4177   -1.5307    0.2614 C.3     1  LIG11       0.0250
      2 C           3.6368   -0.4368   -0.4794 C.ar    1  LIG11      -0.0343
      3 C           3.7137    0.8934   -0.0547 C.ar    1  LIG11      -0.0396
      4 C           2.9679    1.8732   -0.7159 C.ar    1  LIG11       0.0278
      5 N           2.1754    1.5421   -1.7557 N.ar    1  LIG11      -0.2632
      6 S           3.5272   -1.9227    1.8017 S.3     1  LIG11      -0.0990
      7 C           1.9673   -2.2691    1.0452 C.ar    1  LIG11       0.1279
      8 C           1.0663   -1.2477    0.7659 C.ar    1  LIG11       0.1394
      9 C          -0.1111   -1.4864    0.0771 C.ar    1  LIG11       0.1619
     10 N          -0.4345   -2.7364   -0.2988 N.ar    1  LIG11      -0.2163
     11 C           0.4244   -3.7372    0.0088 C.ar    1  LIG11       0.1196
     12 N           1.5901   -3.5112    0.6660 N.ar    1  LIG11      -0.2269
     13 N           1.0814    0.0711    1.0060 N.ar    1  LIG11      -0.2316
     14 C           0.0532    0.6106    0.4981 C.ar    1  LIG11       0.0957
     15 N          -0.7097   -0.2825   -0.0758 N.ar    1  LIG11      -0.3292
     16 C           2.8254   -0.7442   -1.5772 C.ar    1  LIG11      -0.0396
     17 C           2.0935    0.2711   -2.1994 C.ar    1  LIG11       0.0278
     18 H           3.0200    2.9081   -0.3949 H       1  LIG11       0.0829
     19 H           4.3415    1.1658    0.7870 H       1  LIG11       0.0636
     20 H           2.7520   -1.7626   -1.9443 H       1  LIG11       0.0636
     21 H           1.4520    0.0436   -3.0443 H       1  LIG11       0.0829
     22 H           5.4309   -1.1794    0.5070 H       1  LIG11       0.0429
     23 H           4.5030   -2.4459   -0.3439 H       1  LIG11       0.0429
     24 H          -1.5978   -0.1127   -0.5636 H       1  LIG11       0.1682
     25 H          -0.1390    1.6840    0.5482 H       1  LIG11       0.1027
     26 H           0.1731   -4.7527   -0.2783 H       1  LIG11       0.1048
@<TRIPOS>BOND
     1    21    17    1
     2    17     5   ar
     3    17    16   ar
     4    20    16    1
     5     5     4   ar
     6    16     2   ar
     7     4    18    1
     8     4     3   ar
     9    24    15    1
    10     2     3   ar
    11     2     1    1
    12    23     1    1
    13    10    11   ar
    14    10     9   ar
    15    26    11    1
    16    15     9   ar
    17    15    14   ar
    18     3    19    1
    19    11    12   ar
    20     9     8   ar
    21     1    22    1
    22     1     6    1
    23    14    25    1
    24    14    13   ar
    25    12     7   ar
    26     8    13   ar
    27     8     7   ar
    28     7     6    1
