@<TRIPOS>MOLECULE
172614
 44 47 0 0 0
SMALL
GASTEIGER
Energy = 0

@<TRIPOS>ATOM
      1 C           3.7254   -1.1418   -1.1965 C.3     1  LIG11       0.0138
      2 N           4.5752   -2.1760   -0.6109 N.ar    1  LIG11      -0.3263
      3 C           4.5567   -2.5686    0.6485 C.ar    1  LIG11       0.1328
      4 C           5.4938   -3.5196    0.8376 C.ar    1  LIG11       0.2470
      5 N           5.8477   -4.2011    1.8928 N.pl3   1  LIG11       0.0778
      6 O           5.2431   -3.9616    2.9143 O.2     1  LIG11      -0.1245
      7 O           6.7456   -4.9948    1.7182 O.2     1  LIG11      -0.1245
      8 N           6.0651   -3.6302   -0.4772 N.ar    1  LIG11      -0.2119
      9 C           5.4936   -2.8311   -1.2564 C.ar    1  LIG11       0.0991
     10 C           0.0519    0.6079    0.5075 C.ar    1  LIG11       0.1003
     11 N           1.0965    0.0700    0.9820 N.ar    1  LIG11      -0.2313
     12 C           1.0681   -1.2490    0.7541 C.ar    1  LIG11       0.1402
     13 C          -0.1156   -1.4827    0.0720 C.ar    1  LIG11       0.1685
     14 N          -0.7257   -0.2781   -0.0591 N.ar    1  LIG11      -0.2879
     15 C1*        -2.0155    0.0059   -0.6735 C.3     1  LIG11       0.1408
     16 C2*        -2.9958   -1.1839   -0.7633 C.3     1  LIG11       0.0213
     17 C3*        -3.3536   -1.3800    0.7215 C.3     1  LIG11       0.0876
     18 C4*        -3.3517    0.0840    1.2399 C.3     1  LIG11       0.1100
     19 O4*        -2.7163    0.8818    0.2199 O.3     1  LIG11      -0.3484
     20 C5*        -2.6623    0.2179    2.6194 C.3     1  LIG11       0.0729
     21 O5*        -3.3724   -0.6101    3.5594 O.3     1  LIG11      -0.3924
     22 O3*        -4.6251   -2.0362    0.8704 O.3     1  LIG11      -0.3890
     23 N          -0.4261   -2.7358   -0.3067 N.ar    1  LIG11      -0.1949
     24 C           0.4322   -3.7337    0.0052 C.ar    1  LIG11       0.2155
     25 N           1.5907   -3.5137    0.6716 N.ar    1  LIG11      -0.2057
     26 C           1.9553   -2.2736    1.0659 C.ar    1  LIG11       0.1355
     27 S           3.4663   -1.9468    1.9180 S.3     1  LIG11      -0.0459
     28 N           0.1236   -4.9961   -0.3604 N.pl3   1  LIG11      -0.3274
     29 H           5.7518   -2.7246   -2.3108 H       1  LIG11       0.1030
     30 H           2.7746   -1.5927   -1.5189 H       1  LIG11       0.0456
     31 H           4.2092   -0.6854   -2.0738 H       1  LIG11       0.0456
     32 H           3.5195   -0.3387   -0.4724 H       1  LIG11       0.0456
     33 H          -0.1609    1.6757    0.5748 H       1  LIG11       0.1030
     34 H          -0.7524   -5.1857   -0.8679 H       1  LIG11       0.1452
     35 H           0.7641   -5.7696   -0.1317 H       1  LIG11       0.1452
     36 H1*        -1.8471    0.4848   -1.6520 H       1  LIG11       0.0840
     37 H2*1       -2.5904   -2.0804   -1.2539 H       1  LIG11       0.0335
     38 H2*2       -3.8987   -0.8637   -1.3089 H       1  LIG11       0.0335
     39 H4*        -4.3889    0.4470    1.3246 H       1  LIG11       0.0646
     40 H3*        -2.5575   -1.9744    1.2034 H       1  LIG11       0.0621
     41 H5*1       -1.6094   -0.0989    2.5463 H       1  LIG11       0.0584
     42 H5*2       -2.6894    1.2768    2.9271 H       1  LIG11       0.0584
     43 H3*        -4.8703   -2.1245    1.7873 H       1  LIG11       0.2099
     44 H5*        -3.0074   -0.5724    4.4390 H       1  LIG11       0.2095
@<TRIPOS>BOND
     1    29     9    1
     2    31     1    1
     3    36    15    1
     4    30     1    1
     5    38    16    1
     6     9     2   ar
     7     9     8   ar
     8    37    16    1
     9     1     2    1
    10     1    32    1
    11    34    28    1
    12    16    15    1
    13    16    17    1
    14    15    14    1
    15    15    19    1
    16     2     3   ar
    17     8     4   ar
    18    28    35    1
    19    28    24    1
    20    23    24   ar
    21    23    13   ar
    22    14    13   ar
    23    14    10   ar
    24    24    25   ar
    25    13    12   ar
    26    19    18    1
    27    10    33    1
    28    10    11   ar
    29     3     4   ar
    30     3    27    1
    31    25    26   ar
    32    17    22    1
    33    17    40    1
    34    17    18    1
    35    12    11   ar
    36    12    26   ar
    37     4     5    1
    38    22    43    1
    39    26    27    1
    40    18    39    1
    41    18    20    1
    42     7     5    2
    43     5     6    2
    44    41    20    1
    45    20    42    1
    46    20    21    1
    47    21    44    1
