@<TRIPOS>MOLECULE
244708
 37 39 0 0 0
SMALL
GASTEIGER
Energy = 0

@<TRIPOS>ATOM
      1 C           2.9626    7.0921    1.3901 C.3     1  LIG11      -0.0306
      2 C           3.1265    6.0638    0.2457 C.3     1  LIG11       0.0900
      3 O           3.2925    4.7598    0.8382 O.3     1  LIG11      -0.4614
      4 C           3.4452    3.7672   -0.0515 C.2     1  LIG11       0.3393
      5 O           3.4363    3.9850   -1.2534 O.2     1  LIG11      -0.2450
      6 C           3.6295    2.3490    0.4462 C.ar    1  LIG11       0.0634
      7 C           3.7923    1.2943   -0.4564 C.ar    1  LIG11      -0.0163
      8 C           3.8840   -0.0265   -0.0043 C.ar    1  LIG11       0.1429
      9 C           3.7358   -0.2917    1.3648 C.ar    1  LIG11       0.0745
     10 C           3.7373    0.7637    2.2885 C.ar    1  LIG11       0.1429
     11 C           3.6438    2.0781    1.8173 C.ar    1  LIG11      -0.0163
     12 N           3.8195    0.5420    3.6254 N.pl3   1  LIG11       0.0576
     13 O           4.3258   -0.4676    4.0628 O.2     1  LIG11      -0.1261
     14 O           3.4135    1.3691    4.4097 O.2     1  LIG11      -0.1261
     15 S           3.4835   -1.9636    1.9227 S.3     1  LIG11      -0.0631
     16 C           1.9629   -2.2736    1.0623 C.ar    1  LIG11       0.1324
     17 C           1.0725   -1.2473    0.7576 C.ar    1  LIG11       0.1397
     18 C          -0.1094   -1.4852    0.0748 C.ar    1  LIG11       0.1620
     19 N          -0.7185   -0.2841   -0.0631 N.ar    1  LIG11      -0.3292
     20 C           0.0483    0.6098    0.5038 C.ar    1  LIG11       0.0957
     21 N           1.0895    0.0737    0.9884 N.ar    1  LIG11      -0.2316
     22 N          -0.4319   -2.7346   -0.3042 N.ar    1  LIG11      -0.2163
     23 C           0.4272   -3.7353    0.0024 C.ar    1  LIG11       0.1196
     24 N           1.5868   -3.5122    0.6704 N.ar    1  LIG11      -0.2266
     25 N           4.1015   -1.0212   -0.9016 N.pl3   1  LIG11       0.0576
     26 O           4.6457   -2.0519   -0.5722 O.2     1  LIG11      -0.1261
     27 O           3.7737   -0.8833   -2.0582 O.2     1  LIG11      -0.1261
     28 H           3.8497    1.5070   -1.5183 H       1  LIG11       0.0649
     29 H           3.5840    2.9012    2.5208 H       1  LIG11       0.0649
     30 H          -1.6195   -0.1172   -0.5313 H       1  LIG11       0.1682
     31 H          -0.1558    1.6804    0.5660 H       1  LIG11       0.1027
     32 H           0.1807   -4.7484   -0.2955 H       1  LIG11       0.1048
     33 H           4.0096    6.3327   -0.3592 H       1  LIG11       0.0695
     34 H           2.2288    6.0900   -0.3958 H       1  LIG11       0.0695
     35 H           3.8542    7.0786    2.0361 H       1  LIG11       0.0262
     36 H           2.8328    8.1072    0.9826 H       1  LIG11       0.0262
     37 H           2.0814    6.8371    1.9993 H       1  LIG11       0.0262
@<TRIPOS>BOND
     1    27    25    2
     2    28     7    1
     3     5     4    2
     4    25    26    2
     5    25     8    1
     6    30    19    1
     7     7     8   ar
     8     7     6   ar
     9    34     2    1
    10    33     2    1
    11    22    23   ar
    12    22    18   ar
    13    32    23    1
    14    19    18   ar
    15    19    20   ar
    16     4     6    1
    17     4     3    1
    18     8     9   ar
    19    23    24   ar
    20    18    17   ar
    21     2     3    1
    22     2     1    1
    23     6    11   ar
    24    20    31    1
    25    20    21   ar
    26    24    16   ar
    27    17    21   ar
    28    17    16   ar
    29    36     1    1
    30    16    15    1
    31     9    15    1
    32     9    10   ar
    33     1    37    1
    34     1    35    1
    35    11    10   ar
    36    11    29    1
    37    10    12    1
    38    12    13    2
    39    12    14    2
