@<TRIPOS>MOLECULE
29421
 27 29 0 0 0
SMALL
GASTEIGER
Energy = 0

@<TRIPOS>ATOM
      1 C           2.2517    1.3570   -1.9613 C.ar    1  LIG11      -0.0617
      2 C           3.0713    1.7378   -0.8953 C.ar    1  LIG11      -0.0615
      3 C           3.7895    0.7713   -0.1856 C.ar    1  LIG11      -0.0578
      4 C           3.6934   -0.5801   -0.5356 C.ar    1  LIG11      -0.0372
      5 C           2.8890   -0.9540   -1.6186 C.ar    1  LIG11      -0.0578
      6 C           2.1627    0.0102   -2.3234 C.ar    1  LIG11      -0.0615
      7 C           4.4515   -1.6365    0.2799 C.3     1  LIG11       0.0249
      8 S           3.5224   -1.9298    1.8172 S.3     1  LIG11      -0.0990
      9 C           1.9660   -2.2706    1.0486 C.ar    1  LIG11       0.1279
     10 C           1.0699   -1.2465    0.7619 C.ar    1  LIG11       0.1394
     11 C          -0.1086   -1.4860    0.0753 C.ar    1  LIG11       0.1619
     12 N          -0.7132   -0.2841   -0.0703 N.ar    1  LIG11      -0.3292
     13 C           0.0497    0.6097    0.5023 C.ar    1  LIG11       0.0957
     14 N           1.0844    0.0731    0.9994 N.ar    1  LIG11      -0.2316
     15 N          -0.4322   -2.7351   -0.3036 N.ar    1  LIG11      -0.2163
     16 C           0.4241   -3.7366    0.0084 C.ar    1  LIG11       0.1196
     17 N           1.5871   -3.5127    0.6704 N.ar    1  LIG11      -0.2269
     18 H           1.6862    2.1054   -2.5074 H       1  LIG11       0.0618
     19 H           3.1487    2.7842   -0.6168 H       1  LIG11       0.0618
     20 H           4.4196    1.0733    0.6447 H       1  LIG11       0.0621
     21 H           2.8154   -1.9962   -1.9123 H       1  LIG11       0.0621
     22 H           1.5282   -0.2885   -3.1521 H       1  LIG11       0.0618
     23 H           5.4614   -1.2796    0.5307 H       1  LIG11       0.0429
     24 H           4.5403   -2.5855   -0.2702 H       1  LIG11       0.0429
     25 H          -1.6068   -0.1183   -0.5491 H       1  LIG11       0.1682
     26 H          -0.1489    1.6812    0.5614 H       1  LIG11       0.1027
     27 H           0.1725   -4.7517   -0.2799 H       1  LIG11       0.1048
@<TRIPOS>BOND
     1    22     6    1
     2    18     1    1
     3     6     1   ar
     4     6     5   ar
     5     1     2   ar
     6    21     5    1
     7     5     4   ar
     8     2    19    1
     9     2     3   ar
    10    25    12    1
    11     4     3   ar
    12     4     7    1
    13    15    16   ar
    14    15    11   ar
    15    27    16    1
    16    24     7    1
    17     3    20    1
    18    12    11   ar
    19    12    13   ar
    20    16    17   ar
    21    11    10   ar
    22     7    23    1
    23     7     8    1
    24    13    26    1
    25    13    14   ar
    26    17     9   ar
    27    10    14   ar
    28    10     9   ar
    29     9     8    1
