@<TRIPOS>MOLECULE
35865
 29 31 0 0 0
SMALL
GASTEIGER
Energy = 0

@<TRIPOS>ATOM
      1 C           3.1104   -1.5519   -1.7592 C.ar    1  LIG11      -0.0551
      2 C           2.8574   -2.3638   -2.8686 C.ar    1  LIG11      -0.0262
      3 C           3.5525   -3.5643   -3.0300 C.ar    1  LIG11       0.1234
      4 C           4.5036   -3.9514   -2.0832 C.ar    1  LIG11      -0.0262
      5 C           4.7502   -3.1438   -0.9691 C.ar    1  LIG11      -0.0551
      6 C           4.0454   -1.9477   -0.7950 C.ar    1  LIG11      -0.0370
      7 C           4.2924   -1.0953    0.4568 C.3     1  LIG11       0.0249
      8 S           3.5028   -1.9434    1.8613 S.3     1  LIG11      -0.0989
      9 C           1.9597   -2.2729    1.0612 C.ar    1  LIG11       0.1298
     10 C           1.0715   -1.2471    0.7568 C.ar    1  LIG11       0.1395
     11 C          -0.1119   -1.4862    0.0773 C.ar    1  LIG11       0.1638
     12 N          -0.7221   -0.2852   -0.0561 N.ar    1  LIG11      -0.3291
     13 C           0.0495    0.6089    0.5039 C.ar    1  LIG11       0.0957
     14 N           1.0953    0.0740    0.9811 N.ar    1  LIG11      -0.2316
     15 N          -0.4314   -2.7351   -0.3058 N.ar    1  LIG11      -0.1952
     16 C           0.4352   -3.7308   -0.0081 C.ar    1  LIG11       0.2155
     17 N           1.5816   -3.5143    0.6823 N.ar    1  LIG11      -0.2060
     18 N           0.1506   -4.9847   -0.4134 N.pl3   1  LIG11      -0.3274
     19 F           3.3099   -4.3381   -4.0853 F       1  LIG11      -0.2055
     20 H           2.5710   -0.6162   -1.6510 H       1  LIG11       0.0621
     21 H           2.1211   -2.0668   -3.6080 H       1  LIG11       0.0646
     22 H           5.0468   -4.8808   -2.2174 H       1  LIG11       0.0646
     23 H           5.4886   -3.4514   -0.2354 H       1  LIG11       0.0621
     24 H           3.8588   -0.0883    0.3589 H       1  LIG11       0.0429
     25 H           5.3708   -0.9957    0.6504 H       1  LIG11       0.0429
     26 H          -1.6270   -0.1184   -0.5165 H       1  LIG11       0.1682
     27 H          -0.1561    1.6788    0.5659 H       1  LIG11       0.1027
     28 H          -0.7137   -5.1720   -0.9392 H       1  LIG11       0.1452
     29 H           0.8011   -5.7532   -0.2009 H       1  LIG11       0.1452
@<TRIPOS>BOND
     1    19     3    1
     2    21     2    1
     3     3     2   ar
     4     3     4   ar
     5     2     1   ar
     6    22     4    1
     7     4     5   ar
     8     1    20    1
     9     1     6   ar
    10     5     6   ar
    11     5    23    1
    12    28    18    1
    13     6     7    1
    14    26    12    1
    15    18    29    1
    16    18    16    1
    17    15    16   ar
    18    15    11   ar
    19    12    11   ar
    20    12    13   ar
    21    16    17   ar
    22    11    10   ar
    23    24     7    1
    24     7    25    1
    25     7     8    1
    26    13    27    1
    27    13    14   ar
    28    17     9   ar
    29    10    14   ar
    30    10     9   ar
    31     9     8    1
