@<TRIPOS>MOLECULE
35862
 31 32 0 0 0
SMALL
GASTEIGER
Energy = 0

@<TRIPOS>ATOM
      1 C           3.9524    3.1049   -0.3402 C.3     1  LIG11      -0.0653
      2 C           3.8774    1.6852   -0.9600 C.3     1  LIG11      -0.0559
      3 C           4.3098    0.5991    0.0622 C.3     1  LIG11      -0.0526
      4 C           4.2243   -0.8222   -0.5596 C.3     1  LIG11      -0.0436
      5 C           4.5948   -1.9346    0.4592 C.3     1  LIG11      -0.0002
      6 S           3.4815   -1.9486    1.9047 S.3     1  LIG11      -0.1036
      7 C           1.9581   -2.2741    1.0664 C.ar    1  LIG11       0.1295
      8 C           1.0705   -1.2477    0.7593 C.ar    1  LIG11       0.1395
      9 C          -0.1113   -1.4858    0.0763 C.ar    1  LIG11       0.1638
     10 N          -0.7189   -0.2840   -0.0623 N.ar    1  LIG11      -0.3291
     11 C           0.0504    0.6095    0.5017 C.ar    1  LIG11       0.0957
     12 N           1.0917    0.0731    0.9861 N.ar    1  LIG11      -0.2316
     13 N          -0.4332   -2.7352   -0.3028 N.ar    1  LIG11      -0.1952
     14 C           0.4297   -3.7324    0.0013 C.ar    1  LIG11       0.2155
     15 N           1.5904   -3.5122    0.6666 N.ar    1  LIG11      -0.2061
     16 N           0.1250   -4.9920   -0.3709 N.pl3   1  LIG11      -0.3274
     17 H          -1.6204   -0.1161   -0.5288 H       1  LIG11       0.1682
     18 H          -0.1520    1.6801    0.5624 H       1  LIG11       0.1027
     19 H          -0.7505   -5.1815   -0.8770 H       1  LIG11       0.1452
     20 H           0.7684   -5.7634   -0.1477 H       1  LIG11       0.1452
     21 H           5.6219   -1.7823    0.8255 H       1  LIG11       0.0380
     22 H           4.5398   -2.9234   -0.0237 H       1  LIG11       0.0380
     23 H           4.9216   -0.8806   -1.4119 H       1  LIG11       0.0273
     24 H           3.2095   -0.9997   -0.9487 H       1  LIG11       0.0273
     25 H           3.6541    0.6676    0.9439 H       1  LIG11       0.0265
     26 H           5.3445    0.7910    0.3903 H       1  LIG11       0.0265
     27 H           4.5327    1.6411   -1.8459 H       1  LIG11       0.0263
     28 H           2.8413    1.4920   -1.2859 H       1  LIG11       0.0263
     29 H           4.9815    3.3298   -0.0192 H       1  LIG11       0.0230
     30 H           3.6435    3.8590   -1.0812 H       1  LIG11       0.0230
     31 H           3.2851    3.1782    0.5329 H       1  LIG11       0.0230
@<TRIPOS>BOND
     1    27     2    1
     2    23     4    1
     3    28     2    1
     4    30     1    1
     5     2     1    1
     6     2     3    1
     7    24     4    1
     8    19    16    1
     9     4     3    1
    10     4     5    1
    11    17    10    1
    12    16    20    1
    13    16    14    1
    14     1    29    1
    15     1    31    1
    16    13    14   ar
    17    13     9   ar
    18    10     9   ar
    19    10    11   ar
    20    22     5    1
    21    14    15   ar
    22     3    26    1
    23     3    25    1
    24     9     8   ar
    25     5    21    1
    26     5     6    1
    27    11    18    1
    28    11    12   ar
    29    15     7   ar
    30     8    12   ar
    31     8     7   ar
    32     7     6    1
