@<TRIPOS>MOLECULE
38732
 31 33 0 0 0
SMALL
GASTEIGER
Energy = 0

@<TRIPOS>ATOM
      1 N           0.1344   -4.9899   -0.3881 N.pl3   1  LIG11      -0.3274
      2 C           0.4313   -3.7324   -0.0029 C.ar    1  LIG11       0.2155
      3 N           1.5839   -3.5125    0.6752 N.ar    1  LIG11      -0.2057
      4 C           1.9590   -2.2730    1.0654 C.ar    1  LIG11       0.1355
      5 S           3.4702   -1.9512    1.9268 S.3     1  LIG11      -0.0455
      6 N           3.2120    1.0712    2.4821 N.pl3   1  LIG11       0.0625
      7 C           3.7523    0.7378    1.2819 C.ar    1  LIG11       0.1976
      8 C           4.0140   -0.5918    0.9254 C.ar    1  LIG11       0.1383
      9 O           3.4203    0.3460    3.4285 O.2     1  LIG11      -0.1259
     10 O           2.5781    2.1020    2.5502 O.2     1  LIG11      -0.1259
     11 C           4.2035    4.0261   -0.4703 C.3     1  LIG11      -0.0010
     12 N           3.8289    3.0383    0.5378 N.pl3   1  LIG11      -0.3302
     13 C           4.0751    1.7201    0.3339 C.ar    1  LIG11       0.1534
     14 N           4.6575    1.3683   -0.8305 N.ar    1  LIG11      -0.2186
     15 C           4.9748    0.0876   -1.1002 C.ar    1  LIG11       0.1194
     16 N           4.6662   -0.8811   -0.2177 N.ar    1  LIG11      -0.2264
     17 C           1.0733   -1.2467    0.7552 C.ar    1  LIG11       0.1399
     18 C          -0.1102   -1.4861    0.0753 C.ar    1  LIG11       0.1639
     19 N          -0.4316   -2.7353   -0.3057 N.ar    1  LIG11      -0.1952
     20 N           1.0943    0.0740    0.9827 N.ar    1  LIG11      -0.2316
     21 C           0.0485    0.6086    0.5049 C.ar    1  LIG11       0.0957
     22 N          -0.7212   -0.2854   -0.0577 N.ar    1  LIG11      -0.3291
     23 H          -1.6254   -0.1187   -0.5197 H       1  LIG11       0.1682
     24 H          -0.1565    1.6787    0.5691 H       1  LIG11       0.1027
     25 H          -0.7355   -5.1781   -0.9044 H       1  LIG11       0.1452
     26 H           0.7787   -5.7610   -0.1664 H       1  LIG11       0.1452
     27 H           5.4775   -0.1634   -2.0278 H       1  LIG11       0.1048
     28 H           3.3683    3.3499    1.4091 H       1  LIG11       0.1472
     29 H           3.6822    3.8103   -1.4161 H       1  LIG11       0.0426
     30 H           5.2903    3.9884   -0.6442 H       1  LIG11       0.0426
     31 H           3.9366    5.0458   -0.1496 H       1  LIG11       0.0426
@<TRIPOS>BOND
     1    27    15    1
     2    29    11    1
     3    15    14   ar
     4    15    16   ar
     5    25     1    1
     6    14    13   ar
     7    30    11    1
     8    23    22    1
     9    11    31    1
    10    11    12    1
    11     1    26    1
    12     1     2    1
    13    19     2   ar
    14    19    18   ar
    15    16     8   ar
    16    22    18   ar
    17    22    21   ar
    18     2     3   ar
    19    18    17   ar
    20    13    12    1
    21    13     7   ar
    22    21    24    1
    23    21    20   ar
    24    12    28    1
    25     3     4   ar
    26    17    20   ar
    27    17     4   ar
    28     8     7   ar
    29     8     5    1
    30     4     5    1
    31     7     6    1
    32     6    10    2
    33     6     9    2
