@<TRIPOS>MOLECULE
39328
 35 37 0 0 0
SMALL
GASTEIGER
Energy = 0

@<TRIPOS>ATOM
      1 C           2.8644   -7.0733   -1.9000 C.ar    1  LIG11      -0.0617
      2 C           2.4752   -5.8874   -2.5283 C.ar    1  LIG11      -0.0615
      3 C           3.2730   -4.7449   -2.4198 C.ar    1  LIG11      -0.0586
      4 C           4.4599   -4.7752   -1.6784 C.ar    1  LIG11      -0.0473
      5 C           4.8484   -5.9683   -1.0576 C.ar    1  LIG11      -0.0586
      6 C           4.0530   -7.1129   -1.1660 C.ar    1  LIG11      -0.0615
      7 C           5.3131   -3.5035   -1.5514 C.3     1  LIG11      -0.0269
      8 C           4.6247   -2.4958   -0.5934 C.3     1  LIG11      -0.0396
      9 C           4.5373   -3.0505    0.8544 C.3     1  LIG11       0.0001
     10 S           3.5001   -1.9547    1.8787 S.3     1  LIG11      -0.1036
     11 C           1.9625   -2.2724    1.0583 C.ar    1  LIG11       0.1295
     12 C           1.0752   -1.2458    0.7533 C.ar    1  LIG11       0.1395
     13 C          -0.1094   -1.4864    0.0752 C.ar    1  LIG11       0.1638
     14 N          -0.7230   -0.2865   -0.0542 N.ar    1  LIG11      -0.3291
     15 C           0.0470    0.6082    0.5073 C.ar    1  LIG11       0.0957
     16 N           1.0950    0.0749    0.9814 N.ar    1  LIG11      -0.2316
     17 N          -0.4296   -2.7348   -0.3098 N.ar    1  LIG11      -0.1952
     18 C           0.4332   -3.7320   -0.0064 C.ar    1  LIG11       0.2155
     19 N           1.5766   -3.5140    0.6873 N.ar    1  LIG11      -0.2061
     20 N           0.1528   -4.9887   -0.4061 N.pl3   1  LIG11      -0.3274
     21 H           2.2452   -7.9614   -1.9821 H       1  LIG11       0.0618
     22 H           1.5528   -5.8530   -3.1000 H       1  LIG11       0.0618
     23 H           2.9630   -3.8305   -2.9153 H       1  LIG11       0.0620
     24 H           5.7689   -6.0129   -0.4845 H       1  LIG11       0.0620
     25 H           4.3585   -8.0340   -0.6792 H       1  LIG11       0.0618
     26 H           5.4198   -3.0541   -2.5522 H       1  LIG11       0.0313
     27 H           6.3240   -3.7376   -1.1817 H       1  LIG11       0.0313
     28 H           3.6176   -2.2790   -0.9826 H       1  LIG11       0.0276
     29 H           5.1896   -1.5489   -0.5778 H       1  LIG11       0.0276
     30 H           5.5420   -3.1063    1.3013 H       1  LIG11       0.0380
     31 H           4.0927   -4.0568    0.8771 H       1  LIG11       0.0380
     32 H          -1.6287   -0.1208   -0.5129 H       1  LIG11       0.1682
     33 H          -0.1612    1.6775    0.5727 H       1  LIG11       0.1027
     34 H           0.7991   -5.7561   -0.1764 H       1  LIG11       0.1452
     35 H          -0.7040   -5.1797   -0.9420 H       1  LIG11       0.1452
@<TRIPOS>BOND
     1    22     2    1
     2    23     3    1
     3    26     7    1
     4     2     3   ar
     5     2     1   ar
     6     3     4   ar
     7    21     1    1
     8     1     6   ar
     9     4     7    1
    10     4     5   ar
    11     7    27    1
    12     7     8    1
    13     6     5   ar
    14     6    25    1
    15     5    24    1
    16    28     8    1
    17    35    20    1
    18     8    29    1
    19     8     9    1
    20    32    14    1
    21    20    34    1
    22    20    18    1
    23    17    18   ar
    24    17    13   ar
    25    14    13   ar
    26    14    15   ar
    27    18    19   ar
    28    13    12   ar
    29    15    33    1
    30    15    16   ar
    31    19    11   ar
    32    12    16   ar
    33    12    11   ar
    34     9    31    1
    35     9    30    1
    36     9    10    1
    37    11    10    1
