@<TRIPOS>MOLECULE
46384
 32 34 0 0 0
SMALL
GASTEIGER
Energy = 0

@<TRIPOS>ATOM
      1 C           1.1758    2.2020   -2.7248 C.3     1  LIG11      -0.0397
      2 C           2.0907    1.2199   -1.9848 C.ar    1  LIG11      -0.0504
      3 C           2.9504    1.6521   -0.9688 C.ar    1  LIG11      -0.0586
      4 C           3.7351    0.7303   -0.2697 C.ar    1  LIG11      -0.0575
      5 C           3.6684   -0.6324   -0.5776 C.ar    1  LIG11      -0.0372
      6 C           2.8584   -1.0557   -1.6373 C.ar    1  LIG11      -0.0575
      7 C           2.0658   -0.1355   -2.3287 C.ar    1  LIG11      -0.0586
      8 C           4.4594   -1.6472    0.2578 C.3     1  LIG11       0.0249
      9 S           3.5311   -1.9254    1.8008 S.3     1  LIG11      -0.0989
     10 C           1.9683   -2.2705    1.0457 C.ar    1  LIG11       0.1298
     11 C           1.0695   -1.2482    0.7590 C.ar    1  LIG11       0.1395
     12 C          -0.1104   -1.4851    0.0730 C.ar    1  LIG11       0.1638
     13 N          -0.7150   -0.2822   -0.0694 N.ar    1  LIG11      -0.3291
     14 C           0.0497    0.6088    0.5048 C.ar    1  LIG11       0.0957
     15 N           1.0849    0.0702    0.9990 N.ar    1  LIG11      -0.2316
     16 N          -0.4315   -2.7349   -0.3056 N.ar    1  LIG11      -0.1952
     17 C           0.4260   -3.7333    0.0096 C.ar    1  LIG11       0.2155
     18 N           1.5860   -3.5136    0.6764 N.ar    1  LIG11      -0.2060
     19 N           0.1165   -4.9944   -0.3533 N.pl3   1  LIG11      -0.3274
     20 H           3.0118    2.7049   -0.7135 H       1  LIG11       0.0620
     21 H           4.3920    1.0766    0.5218 H       1  LIG11       0.0621
     22 H           2.8306   -2.1025   -1.9225 H       1  LIG11       0.0621
     23 H           1.4254   -0.4782   -3.1352 H       1  LIG11       0.0620
     24 H           1.1884    3.2013   -2.2645 H       1  LIG11       0.0278
     25 H           0.1431    1.8224   -2.7070 H       1  LIG11       0.0278
     26 H           1.5106    2.2873   -3.7693 H       1  LIG11       0.0278
     27 H           5.4601   -1.2586    0.4990 H       1  LIG11       0.0429
     28 H           4.5729   -2.6067   -0.2693 H       1  LIG11       0.0429
     29 H          -1.6102   -0.1118   -0.5461 H       1  LIG11       0.1682
     30 H          -0.1505    1.6796    0.5652 H       1  LIG11       0.1027
     31 H          -0.7584   -5.1837   -0.8606 H       1  LIG11       0.1452
     32 H           0.7553   -5.7671   -0.1219 H       1  LIG11       0.1452
@<TRIPOS>BOND
     1    26     1    1
     2    23     7    1
     3     1    25    1
     4     1    24    1
     5     1     2    1
     6     7     2   ar
     7     7     6   ar
     8     2     3   ar
     9    22     6    1
    10     6     5   ar
    11     3    20    1
    12     3     4   ar
    13    31    19    1
    14     5     4   ar
    15     5     8    1
    16    29    13    1
    17    19    32    1
    18    19    17    1
    19    16    17   ar
    20    16    12   ar
    21     4    21    1
    22    28     8    1
    23    13    12   ar
    24    13    14   ar
    25    17    18   ar
    26    12    11   ar
    27     8    27    1
    28     8     9    1
    29    14    30    1
    30    14    15   ar
    31    18    10   ar
    32    11    15   ar
    33    11    10   ar
    34    10     9    1
