@<TRIPOS>MOLECULE
647471
 40 42 0 0 0
SMALL
GASTEIGER
Energy = 0

@<TRIPOS>ATOM
      1 C           3.9226    0.7891   -2.2295 C.3     1  LIG11       0.0333
      2 C           4.5108   -0.3482   -1.4451 C.2     1  LIG11       0.3047
      3 O           5.5005   -0.9493   -1.8309 O.2     1  LIG11      -0.2511
      4 O           3.8803   -0.6338   -0.3003 O.3     1  LIG11      -0.4535
      5 C           4.4823   -1.7226    0.4250 C.3     1  LIG11       0.1438
      6 S           3.4764   -1.9578    1.9184 S.3     1  LIG11      -0.0629
      7 C           1.9572   -2.2752    1.0724 C.ar    1  LIG11       0.1307
      8 C           1.0766   -1.2458    0.7586 C.ar    1  LIG11       0.1396
      9 C          -0.1047   -1.4858    0.0783 C.ar    1  LIG11       0.1628
     10 N          -0.4294   -2.7315   -0.3100 N.ar    1  LIG11      -0.2161
     11 C           0.4293   -3.7333   -0.0057 C.ar    1  LIG11       0.1196
     12 N           1.5837   -3.5118    0.6718 N.ar    1  LIG11      -0.2268
     13 N          -0.7310   -0.2895   -0.0465 N.ar    1  LIG11      -0.3320
     14 C           0.0534    0.6094    0.4930 C.ar    1  LIG11       0.0966
     15 N           1.0922    0.0748    0.9806 N.ar    1  LIG11      -0.2315
     16 C          -1.9797   -0.0673   -0.7653 C.3     1  LIG11      -0.0073
     17 N          -3.2312   -0.2840    0.0283 N.4     1  LIG11       0.3945
     18 C          -3.4968    0.7346    1.0865 C.3     1  LIG11      -0.0641
     19 C          -2.8248    0.3967    2.4400 C.3     1  LIG11       0.0330
     20 O          -3.2641   -0.9086    2.8387 O.3     1  LIG11      -0.3834
     21 C          -2.8263   -1.9344    1.9376 C.3     1  LIG11       0.0330
     22 C          -3.4460   -1.6713    0.5399 C.3     1  LIG11      -0.0641
     23 H          -0.1220    1.6854    0.5382 H       1  LIG11       0.1029
     24 H           0.1887   -4.7456   -0.3125 H       1  LIG11       0.1048
     25 H          -1.9517   -0.7566   -1.6301 H       1  LIG11       0.0286
     26 H          -1.9502    0.9519   -1.1915 H       1  LIG11       0.0286
     27 H          -3.1552    1.1074    3.2164 H       1  LIG11       0.0541
     28 H          -1.7267    0.4452    2.3969 H       1  LIG11       0.0541
     29 H          -3.1927    1.7483    0.7752 H       1  LIG11       0.0082
     30 H          -4.5804    0.7706    1.3049 H       1  LIG11       0.0082
     31 H          -3.0792   -2.4345   -0.1673 H       1  LIG11       0.0082
     32 H          -4.5294   -1.8469    0.6756 H       1  LIG11       0.0082
     33 H          -3.1821   -2.9002    2.3345 H       1  LIG11       0.0541
     34 H          -1.7287   -1.9787    1.9303 H       1  LIG11       0.0541
     35 H           5.5139   -1.4861    0.7311 H       1  LIG11       0.0820
     36 H           4.4743   -2.6585   -0.1578 H       1  LIG11       0.0820
     37 H           2.8286    0.6835   -2.2748 H       1  LIG11       0.0342
     38 H           4.1756    1.7377   -1.7345 H       1  LIG11       0.0342
     39 H           4.3256    0.7968   -3.2532 H       1  LIG11       0.0342
     40 H          -4.0047   -0.1244   -0.7270 H       1  LIG11      -0.0790
@<TRIPOS>BOND
     1    39     1    1
     2    37     1    1
     3     1    38    1
     4     1     2    1
     5     3     2    2
     6    25    16    1
     7     2     4    1
     8    26    16    1
     9    16    13    1
    10    16    17    1
    11    40    17    1
    12    24    11    1
    13    10    11   ar
    14    10     9   ar
    15     4     5    1
    16    31    22    1
    17    36     5    1
    18    13     9   ar
    19    13    14   ar
    20    11    12   ar
    21    17    22    1
    22    17    18    1
    23     9     8   ar
    24     5    35    1
    25     5     6    1
    26    14    23    1
    27    14    15   ar
    28    22    32    1
    29    22    21    1
    30    12     7   ar
    31     8    15   ar
    32     8     7   ar
    33    29    18    1
    34     7     6    1
    35    18    30    1
    36    18    19    1
    37    34    21    1
    38    21    33    1
    39    21    20    1
    40    28    19    1
    41    19    20    1
    42    19    27    1
