@<TRIPOS>MOLECULE
71261
 32 34 0 0 0
SMALL
GASTEIGER
Energy = 0

@<TRIPOS>ATOM
      1 C           0.0511    0.6078    0.5076 C.ar    1  LIG11       0.1003
      2 N           1.0955    0.0706    0.9832 N.ar    1  LIG11      -0.2313
      3 C           1.0699   -1.2484    0.7528 C.ar    1  LIG11       0.1396
      4 C          -0.1143   -1.4826    0.0712 C.ar    1  LIG11       0.1684
      5 N          -0.7253   -0.2783   -0.0604 N.ar    1  LIG11      -0.2879
      6 C1*        -2.0137    0.0057   -0.6777 C.3     1  LIG11       0.1408
      7 C2*        -2.9927   -1.1845   -0.7746 C.3     1  LIG11       0.0213
      8 C3*        -3.3569   -1.3855    0.7081 C.3     1  LIG11       0.0876
      9 C4*        -3.3542    0.0764    1.2326 C.3     1  LIG11       0.1100
     10 O4*        -2.7195    0.8779    0.2153 O.3     1  LIG11      -0.3484
     11 C5*        -2.6631    0.2046    2.6118 C.3     1  LIG11       0.0729
     12 O5*        -3.3744   -0.6239    3.5506 O.3     1  LIG11      -0.3924
     13 O3*        -4.6304   -2.0394    0.8495 O.3     1  LIG11      -0.3890
     14 N          -0.4271   -2.7358   -0.3048 N.ar    1  LIG11      -0.1949
     15 C           0.4308   -3.7346    0.0053 C.ar    1  LIG11       0.2155
     16 N           1.5915   -3.5134    0.6692 N.ar    1  LIG11      -0.2063
     17 C           1.9553   -2.2741    1.0683 C.ar    1  LIG11       0.1265
     18 S           3.4684   -1.9500    1.9238 S.3     1  LIG11      -0.1211
     19 N           0.1194   -4.9947   -0.3591 N.pl3   1  LIG11      -0.3274
     20 H          -0.1621    1.6754    0.5749 H       1  LIG11       0.1030
     21 H1*        -1.8420    0.4873   -1.6543 H       1  LIG11       0.0840
     22 H2*1       -2.5846   -2.0793   -1.2665 H       1  LIG11       0.0335
     23 H2*2       -3.8935   -0.8632   -1.3228 H       1  LIG11       0.0335
     24 H4*        -4.3910    0.4398    1.3200 H       1  LIG11       0.0646
     25 H3*        -2.5637   -1.9835    1.1905 H       1  LIG11       0.0621
     26 H           3.5452   -2.8504    2.3697 H       1  LIG11       0.1086
     27 H          -0.7584   -5.1831   -0.8618 H       1  LIG11       0.1452
     28 H           0.7601   -5.7679   -0.1341 H       1  LIG11       0.1452
     29 H5*1       -1.6109   -0.1145    2.5369 H       1  LIG11       0.0584
     30 H5*2       -2.6872    1.2628    2.9225 H       1  LIG11       0.0584
     31 H3*        -4.8786   -2.1319    1.7653 H       1  LIG11       0.2099
     32 H5*        -3.0077   -0.5900    4.4296 H       1  LIG11       0.2095
@<TRIPOS>BOND
     1    21     6    1
     2    23     7    1
     3    22     7    1
     4    27    19    1
     5     7     6    1
     6     7     8    1
     7     6     5    1
     8     6    10    1
     9    19    28    1
    10    19    15    1
    11    14    15   ar
    12    14     4   ar
    13     5     4   ar
    14     5     1   ar
    15    15    16   ar
    16     4     3   ar
    17    10     9    1
    18     1    20    1
    19     1     2   ar
    20    16    17   ar
    21     8    13    1
    22     8    25    1
    23     8     9    1
    24     3     2   ar
    25     3    17   ar
    26    13    31    1
    27    17    18    1
    28     9    24    1
    29     9    11    1
    30    18    26    1
    31    29    11    1
    32    11    30    1
    33    11    12    1
    34    12    32    1
