@<TRIPOS>MOLECULE
Steroids.7
 56 59 0 0 0
SMALL
GASTEIGER

@<TRIPOS>ATOM
      1 C          -3.0215   -0.7677   -1.0647 C.3     1  LIG1       -0.0365
      2 C          -1.8115   -0.5796   -0.1201 C.3     1  LIG1       -0.0048
      3 C          -0.8303    1.2870   -1.6442 C.3     1  LIG1        0.0597
      4 C           0.3785    1.7247   -2.5057 C.3     1  LIG1       -0.0178
      5 C           1.6934    1.6601   -1.6967 C.3     1  LIG1        0.0091
      6 C           1.8437    0.2147   -1.2003 C.3     1  LIG1       -0.0292
      7 C           3.2743    0.1668   -0.6467 C.3     1  LIG1       -0.0463
      8 C           4.0551    1.0869   -1.6101 C.3     1  LIG1       -0.0161
      9 C           3.0066    1.8027   -2.5044 C.3     1  LIG1        0.1314
     10 C           1.6983    2.6812   -0.5343 C.3     1  LIG1       -0.0561
     11 C          -2.1755    0.4292    0.9905 C.3     1  LIG1       -0.0554
     12 C          -4.2056   -1.4012   -0.3109 C.3     1  LIG1        0.0106
     13 C           3.4340    3.2145   -2.8249 C.2     1  LIG1        0.1901
     14 C           2.6270    3.9882   -3.8285 C.3     1  LIG1        0.1051
     15 C          -3.7532   -2.6517    0.3902 C.2     1  LIG1        0.1560
     16 C          -2.4917   -2.7997    0.8043 C.2     1  LIG1       -0.0194
     17 C          -1.5389   -1.8817    0.6036 C.2     1  LIG1       -0.0599
     18 C          -0.1523   -2.1114    1.1436 C.3     1  LIG1       -0.0305
     19 C           0.9470   -1.6655    0.1650 C.3     1  LIG1       -0.0458
     20 C           0.7245   -0.1944   -0.2261 C.3     1  LIG1       -0.0313
     21 C          -0.6141   -0.1062   -0.9910 C.3     1  LIG1       -0.0027
     22 O          -1.1018    2.3375   -0.6544 O.3     1  LIG1       -0.3914
     23 O           2.8976    1.0463   -3.7633 O.3     1  LIG1       -0.3804
     24 O           4.4187    3.7212   -2.3122 O.2     1  LIG1       -0.2918
     25 O           2.5034    5.3876   -3.3932 O.3     1  LIG1       -0.3874
     26 O          -4.5603   -3.5455    0.5905 O.2     1  LIG1       -0.2926
     27 H          -2.7314   -1.4334   -1.8906 H       1  LIG1        0.0277
     28 H          -3.3348    0.2043   -1.4716 H       1  LIG1        0.0277
     29 H          -1.7040    1.2251   -2.3088 H       1  LIG1        0.0596
     30 H           0.2005    2.7489   -2.8589 H       1  LIG1        0.0296
     31 H           0.4477    1.0466   -3.3680 H       1  LIG1        0.0296
     32 H           1.8007   -0.4545   -2.0733 H       1  LIG1        0.0309
     33 H           3.6732   -0.8579   -0.6383 H       1  LIG1        0.0269
     34 H           3.2903    0.5925    0.3665 H       1  LIG1        0.0269
     35 H           4.7549    0.5067   -2.2295 H       1  LIG1        0.0297
     36 H           4.6152    1.8101   -1.0001 H       1  LIG1        0.0297
     37 H           1.4562    3.6777   -0.9318 H       1  LIG1        0.0236
     38 H           2.6935    2.7129   -0.0678 H       1  LIG1        0.0236
     39 H           0.9622    2.4078    0.2329 H       1  LIG1        0.0236
     40 H          -1.2659    0.7383    1.5259 H       1  LIG1        0.0238
     41 H          -2.8682   -0.0451    1.7009 H       1  LIG1        0.0238
     42 H          -2.6713    1.3085    0.5569 H       1  LIG1        0.0238
     43 H          -5.0039   -1.6353   -1.0305 H       1  LIG1        0.0345
     44 H          -4.5863   -0.6865    0.4327 H       1  LIG1        0.0345
     45 H           1.6266    3.5534   -3.9457 H       1  LIG1        0.0637
     46 H           3.1425    3.9647   -4.7996 H       1  LIG1        0.0637
     47 H          -2.2252   -3.7168    1.3283 H       1  LIG1        0.0651
     48 H          -0.0075   -3.1818    1.3534 H       1  LIG1        0.0310
     49 H          -0.0418   -1.5450    2.0792 H       1  LIG1        0.0310
     50 H           0.9118   -2.2938   -0.7379 H       1  LIG1        0.0271
     51 H           1.9283   -1.7785    0.6498 H       1  LIG1        0.0271
     52 H           0.7221    0.4420    0.6687 H       1  LIG1        0.0307
     53 H          -0.5309   -0.8214   -1.8235 H       1  LIG1        0.0336
     54 H          -1.2656    3.1986   -1.0167 H       1  LIG1        0.2097
     55 H           2.2619    1.3767   -4.3865 H       1  LIG1        0.2107
     56 H           3.3279    5.8503   -3.2946 H       1  LIG1        0.2099
@<TRIPOS>BOND
     1     1     2    1
     2     2    21    1
     3    21     3    1
     4     3     4    1
     5     6     5    1
     6     6     7    1
     7     7     8    1
     8     8     9    1
     9     9    13    1
    10     5    10    1
    11     2    11    1
    12     1    12    1
    13    13    14    1
    14    14    25    1
    15    12    15    1
    16    15    16    1
    17    16    17    2
    18    17    18    1
    19    18    19    1
    20    20     6    1
    21    21    20    1
    22     3    22    1
    23     9    23    1
    24    13    24    2
    25    15    26    2
    26     5     9    1
    27     5     4    1
    28     2    17    1
    29    20    19    1
    30     1    27    1
    31     1    28    1
    32     3    29    1
    33     4    30    1
    34     4    31    1
    35     6    32    1
    36     7    33    1
    37     7    34    1
    38     8    35    1
    39     8    36    1
    40    10    37    1
    41    10    38    1
    42    10    39    1
    43    11    40    1
    44    11    41    1
    45    11    42    1
    46    12    43    1
    47    12    44    1
    48    14    45    1
    49    14    46    1
    50    16    47    1
    51    18    48    1
    52    18    49    1
    53    19    50    1
    54    19    51    1
    55    20    52    1
    56    21    53    1
    57    22    54    1
    58    23    55    1
    59    25    56    1
