@<TRIPOS>MOLECULE
Steroids.1
 54 58 0 0 0
SMALL
GASTEIGER

@<TRIPOS>ATOM
      1 C          -3.0005   -0.6877   -1.0252 C.3     1  LIG1       -0.0365
      2 C          -1.7759   -0.5403   -0.0900 C.3     1  LIG1       -0.0048
      3 C          -0.7029    1.3090   -1.5538 C.3     1  LIG1        0.0662
      4 C           0.3657    1.5011   -2.6475 C.3     1  LIG1       -0.0150
      5 C           1.6181    1.5719   -1.7582 C.3     1  LIG1        0.0364
      6 C           1.8899    0.1645   -1.2004 C.3     1  LIG1       -0.0268
      7 C           3.2747    0.3045   -0.5447 C.3     1  LIG1       -0.0486
      8 C           3.9853    1.4033   -1.3669 C.3     1  LIG1       -0.0424
      9 C           2.9700    1.8570   -2.4402 C.3     1  LIG1        0.0303
     10 C           1.1884    2.5197   -0.6095 C.3     1  LIG1        0.1630
     11 C          -2.0582    0.5212    0.9945 C.3     1  LIG1       -0.0554
     12 C          -4.1877   -1.3541   -0.3055 C.3     1  LIG1        0.0106
     13 C           3.1984    3.2545   -2.9462 C.2     1  LIG1        0.1621
     14 C           2.2680    3.7658   -4.0091 C.3     1  LIG1        0.1025
     15 C          -3.7364   -2.6283    0.3507 C.2     1  LIG1        0.1560
     16 C          -2.4752   -2.7889    0.7638 C.2     1  LIG1       -0.0194
     17 C          -1.5258   -1.8605    0.6105 C.2     1  LIG1       -0.0599
     18 C          -0.1482   -2.1047    1.1667 C.3     1  LIG1       -0.0305
     19 C           0.9470   -1.7571    0.1454 C.3     1  LIG1       -0.0458
     20 C           0.7674   -0.2833   -0.2462 C.3     1  LIG1       -0.0312
     21 C          -0.5782   -0.1295   -0.9851 C.3     1  LIG1       -0.0023
     22 O          -0.2662    2.2904   -0.5450 O.3     1  LIG1       -0.3473
     23 O           1.4172    3.9375   -0.9257 O.3     1  LIG1       -0.3664
     24 O           4.0995    3.9532   -2.5121 O.2     1  LIG1       -0.2946
     25 O           3.0183    4.5484   -5.0032 O.3     1  LIG1       -0.3875
     26 O          -4.5413   -3.5300    0.5197 O.2     1  LIG1       -0.2926
     27 H          -2.7174   -1.3305   -1.8723 H       1  LIG1        0.0277
     28 H          -3.3113    0.2956   -1.4058 H       1  LIG1        0.0277
     29 H          -1.7183    1.5085   -1.9256 H       1  LIG1        0.0600
     30 H           0.2005    2.4548   -3.1674 H       1  LIG1        0.0297
     31 H           0.4007    0.6654   -3.3622 H       1  LIG1        0.0297
     32 H           1.9650   -0.5377   -2.0440 H       1  LIG1        0.0310
     33 H           3.8197   -0.6502   -0.5742 H       1  LIG1        0.0268
     34 H           3.1608    0.6444    0.4965 H       1  LIG1        0.0268
     35 H           4.9032    1.0245   -1.8377 H       1  LIG1        0.0272
     36 H           4.2219    2.2437   -0.6978 H       1  LIG1        0.0272
     37 H           3.0546    1.1641   -3.2894 H       1  LIG1        0.0385
     38 H           1.6771    2.2656    0.3420 H       1  LIG1        0.0913
     39 H          -2.3228    1.4783    0.5215 H       1  LIG1        0.0238
     40 H          -1.1635    0.6555    1.6200 H       1  LIG1        0.0238
     41 H          -2.8955    0.1866    1.6243 H       1  LIG1        0.0238
     42 H          -4.9661   -1.5734   -1.0507 H       1  LIG1        0.0345
     43 H          -4.5946   -0.6733    0.4564 H       1  LIG1        0.0345
     44 H           1.5038    4.4046   -3.5428 H       1  LIG1        0.0636
     45 H           1.7761    2.9251   -4.5191 H       1  LIG1        0.0636
     46 H          -2.2112   -3.7227    1.2585 H       1  LIG1        0.0651
     47 H          -0.0382   -3.1594    1.4599 H       1  LIG1        0.0310
     48 H          -0.0073   -1.4696    2.0540 H       1  LIG1        0.0310
     49 H           0.8482   -2.3955   -0.7453 H       1  LIG1        0.0271
     50 H           1.9380   -1.9039    0.6004 H       1  LIG1        0.0271
     51 H           0.7741    0.3392    0.6605 H       1  LIG1        0.0307
     52 H          -0.5605   -0.8188   -1.8417 H       1  LIG1        0.0336
     53 H           2.3267    4.2093   -0.9390 H       1  LIG1        0.2124
     54 H           3.4814    5.3033   -4.6597 H       1  LIG1        0.2099
@<TRIPOS>BOND
     1     1     2    1
     2     2    21    1
     3     3     4    1
     4     4     5    1
     5     5     6    1
     6     6    20    1
     7     6     7    1
     8     7     8    1
     9     8     9    1
    10    10    23    1
    11     2    11    1
    12    12     1    1
    13     9    13    1
    14    13    14    1
    15    15    12    1
    16    16    15    1
    17    17    16    2
    18    18    17    1
    19    19    18    1
    20    20    19    1
    21    21     3    1
    22    10    22    1
    23    13    24    2
    24    14    25    1
    25    15    26    2
    26    21    20    1
    27     2    17    1
    28     5    10    1
    29     3    22    1
    30     5     9    1
    31     1    27    1
    32     1    28    1
    33     3    29    1
    34     4    30    1
    35     4    31    1
    36     6    32    1
    37     7    33    1
    38     7    34    1
    39     8    35    1
    40     8    36    1
    41     9    37    1
    42    10    38    1
    43    11    39    1
    44    11    40    1
    45    11    41    1
    46    12    42    1
    47    12    43    1
    48    14    44    1
    49    14    45    1
    50    16    46    1
    51    18    47    1
    52    18    48    1
    53    19    49    1
    54    19    50    1
    55    20    51    1
    56    21    52    1
    57    23    53    1
    58    25    54    1
