@<TRIPOS>MOLECULE
Steroids.10
 54 57 0 0 0
SMALL
GASTEIGER

@<TRIPOS>ATOM
      1 C          -3.0001   -0.7978   -1.0955 C.3     1  LIG1       -0.0366
      2 C          -1.8004   -0.5786   -0.1437 C.3     1  LIG1       -0.0072
      3 C          -0.8058    1.2795   -1.6135 C.3     1  LIG1       -0.0486
      4 C           0.3823    1.7010   -2.5083 C.3     1  LIG1       -0.0464
      5 C           1.6829    1.6383   -1.6833 C.3     1  LIG1       -0.0193
      6 C           1.8580    0.1875   -1.2140 C.3     1  LIG1       -0.0318
      7 C           3.2918    0.1645   -0.6661 C.3     1  LIG1       -0.0487
      8 C           4.0530    1.0960   -1.6370 C.3     1  LIG1       -0.0426
      9 C           2.9823    1.8226   -2.4919 C.3     1  LIG1        0.0254
     10 C           1.6478    2.6461   -0.5089 C.3     1  LIG1       -0.0586
     11 C          -2.1494    0.5030    0.9009 C.3     1  LIG1       -0.0555
     12 C          -4.1917   -1.4054   -0.3338 C.3     1  LIG1        0.0106
     13 C           3.3189    3.2618   -2.7814 C.2     1  LIG1        0.1620
     14 C           2.3842    4.0149   -3.6847 C.3     1  LIG1        0.1025
     15 C          -3.7459   -2.6446    0.3884 C.2     1  LIG1        0.1560
     16 C          -2.4881   -2.7794    0.8223 C.2     1  LIG1       -0.0194
     17 C          -1.5369   -1.8608    0.6169 C.2     1  LIG1       -0.0600
     18 C          -0.1569   -2.0744    1.1799 C.3     1  LIG1       -0.0305
     19 C           0.9441   -1.6931    0.1763 C.3     1  LIG1       -0.0459
     20 C           0.7366   -0.2296   -0.2460 C.3     1  LIG1       -0.0337
     21 C          -0.5985   -0.1378   -1.0195 C.3     1  LIG1       -0.0287
     22 O           4.3028    3.8021   -2.3027 O.2     1  LIG1       -0.2946
     23 O           3.0551    5.2003   -4.2393 O.3     1  LIG1       -0.3875
     24 O          -4.5502   -3.5393    0.5903 O.2     1  LIG1       -0.2926
     25 H          -3.3099    0.1554   -1.5466 H       1  LIG1        0.0277
     26 H          -2.7016   -1.4965   -1.8908 H       1  LIG1        0.0277
     27 H          -0.9116    2.0097   -0.7991 H       1  LIG1        0.0268
     28 H          -1.7189    1.2921   -2.2246 H       1  LIG1        0.0268
     29 H           0.2138    2.7214   -2.8794 H       1  LIG1        0.0270
     30 H           0.4556    1.0081   -3.3593 H       1  LIG1        0.0270
     31 H           1.8233   -0.4699   -2.0960 H       1  LIG1        0.0308
     32 H           3.7067   -0.8539   -0.6583 H       1  LIG1        0.0268
     33 H           3.3072    0.5907    0.3476 H       1  LIG1        0.0268
     34 H           4.7167    0.5136   -2.2927 H       1  LIG1        0.0272
     35 H           4.6442    1.8104   -1.0455 H       1  LIG1        0.0272
     36 H           2.8741    1.2722   -3.4385 H       1  LIG1        0.0383
     37 H           1.4864    3.6575   -0.9094 H       1  LIG1        0.0235
     38 H           2.6050    2.6235    0.0319 H       1  LIG1        0.0235
     39 H           0.8351    2.4038    0.1894 H       1  LIG1        0.0235
     40 H          -2.5233    1.4047    0.3951 H       1  LIG1        0.0238
     41 H          -1.2526    0.7548    1.4854 H       1  LIG1        0.0238
     42 H          -2.9274    0.1223    1.5786 H       1  LIG1        0.0238
     43 H          -4.9910   -1.6478   -1.0492 H       1  LIG1        0.0345
     44 H          -4.5683   -0.6740    0.3952 H       1  LIG1        0.0345
     45 H           1.5069    4.3443   -3.1098 H       1  LIG1        0.0636
     46 H           2.0566    3.3629   -4.5077 H       1  LIG1        0.0636
     47 H          -2.2234   -3.6850    1.3664 H       1  LIG1        0.0651
     48 H          -0.0232   -3.1310    1.4548 H       1  LIG1        0.0310
     49 H          -0.0422   -1.4531    2.0801 H       1  LIG1        0.0310
     50 H           0.8871   -2.3465   -0.7071 H       1  LIG1        0.0271
     51 H           1.9274   -1.8063    0.6554 H       1  LIG1        0.0271
     52 H           0.7277    0.4175    0.6424 H       1  LIG1        0.0306
     53 H          -0.5265   -0.8387   -1.8645 H       1  LIG1        0.0311
     54 H           3.8291    5.0206   -4.7599 H       1  LIG1        0.2099
@<TRIPOS>BOND
     1     1    12    1
     2     2    11    1
     3    21     3    1
     4     3     4    1
     5     4     5    1
     6     5     6    1
     7     6     7    1
     8     7     8    1
     9     8     9    1
    10     5    10    1
    11    12    15    1
    12     9    13    1
    13    13    14    1
    14    15    16    1
    15    16    17    2
    16    17    18    1
    17    18    19    1
    18    19    20    1
    19    20    21    1
    20    21     2    1
    21    13    22    2
    22    14    23    1
    23    15    24    2
    24     1     2    1
    25    17     2    1
    26    20     6    1
    27     5     9    1
    28     1    25    1
    29     1    26    1
    30     3    27    1
    31     3    28    1
    32     4    29    1
    33     4    30    1
    34     6    31    1
    35     7    32    1
    36     7    33    1
    37     8    34    1
    38     8    35    1
    39     9    36    1
    40    10    37    1
    41    10    38    1
    42    10    39    1
    43    11    40    1
    44    11    41    1
    45    11    42    1
    46    12    43    1
    47    12    44    1
    48    14    45    1
    49    14    46    1
    50    16    47    1
    51    18    48    1
    52    18    49    1
    53    19    50    1
    54    19    51    1
    55    20    52    1
    56    21    53    1
    57    23    54    1
