@<TRIPOS>MOLECULE
Steroids.11
 55 58 0 0 0
SMALL
GASTEIGER

@<TRIPOS>ATOM
      1 C          -3.0314   -0.6702   -0.9936 C.3     1  LIG1       -0.0366
      2 C          -1.7944   -0.5487   -0.0719 C.3     1  LIG1       -0.0072
      3 C          -0.8175    1.3041   -1.5680 C.3     1  LIG1       -0.0485
      4 C           0.3551    1.7071   -2.4932 C.3     1  LIG1       -0.0440
      5 C           1.6752    1.6519   -1.6988 C.3     1  LIG1        0.0068
      6 C           1.8480    0.2177   -1.1759 C.3     1  LIG1       -0.0293
      7 C           3.2835    0.1980   -0.6303 C.3     1  LIG1       -0.0463
      8 C           4.0407    1.1597   -1.5746 C.3     1  LIG1       -0.0161
      9 C           2.9774    1.7727   -2.5220 C.3     1  LIG1        0.1313
     10 C           1.6626    2.6998   -0.5598 C.3     1  LIG1       -0.0562
     11 C          -2.0660    0.4790    1.0471 C.3     1  LIG1       -0.0555
     12 C          -4.1997   -1.3588   -0.2672 C.3     1  LIG1        0.0106
     13 C           3.3297    3.1663   -2.9739 C.2     1  LIG1        0.1901
     14 C           2.6388    3.6883   -4.2030 C.3     1  LIG1        0.1051
     15 C          -3.7355   -2.6540    0.3341 C.2     1  LIG1        0.1560
     16 C          -2.4742   -2.8128    0.7471 C.2     1  LIG1       -0.0194
     17 C          -1.5306   -1.8753    0.6068 C.2     1  LIG1       -0.0600
     18 C          -0.1528   -2.1144    1.1641 C.3     1  LIG1       -0.0305
     19 C           0.9570   -1.6660    0.1990 C.3     1  LIG1       -0.0459
     20 C           0.7351   -0.1957   -0.1984 C.3     1  LIG1       -0.0337
     21 C          -0.6047   -0.1067   -0.9625 C.3     1  LIG1       -0.0287
     22 H          -3.3567    0.3277   -1.3196 H       1  LIG1        0.0277
     23 H          -2.7662   -1.2730   -1.8748 H       1  LIG1        0.0277
     24 H          -1.7395    1.3110   -2.1659 H       1  LIG1        0.0268
     25 H           0.4012    1.0066   -3.3398 H       1  LIG1        0.0271
     26 H           0.1843    2.7266   -2.8661 H       1  LIG1        0.0271
     27 H           1.8080   -0.4665   -2.0370 H       1  LIG1        0.0309
     28 H           3.2982    0.5942    0.3958 H       1  LIG1        0.0269
     29 H           3.7016   -0.8190   -0.6547 H       1  LIG1        0.0269
     30 H           4.5165    1.9413   -0.9645 H       1  LIG1        0.0297
     31 H           4.8051    0.6223   -2.1543 H       1  LIG1        0.0297
     32 H           3.6768    0.8454   -4.2264 H       1  LIG1        0.2107
     33 H           2.6169    2.6804   -0.0146 H       1  LIG1        0.0236
     34 H           0.8454    2.4939    0.1459 H       1  LIG1        0.0236
     35 H           1.5184    3.6991   -0.9964 H       1  LIG1        0.0236
     36 H          -1.1602    0.6031    1.6588 H       1  LIG1        0.0238
     37 H          -2.8859    0.1166    1.6848 H       1  LIG1        0.0238
     38 H          -2.3504    1.4461    0.6086 H       1  LIG1        0.0238
     39 H          -4.5619   -0.7019    0.5369 H       1  LIG1        0.0345
     40 H          -5.0150   -1.5401   -0.9826 H       1  LIG1        0.0345
     41 H           2.3332    5.5438   -5.0366 H       1  LIG1        0.2099
     42 H           3.1280    3.2628   -5.0914 H       1  LIG1        0.0637
     43 H           1.5809    3.3930   -4.2011 H       1  LIG1        0.0637
     44 H          -2.2042   -3.7560    1.2205 H       1  LIG1        0.0651
     45 H          -0.0521   -1.5516    2.1035 H       1  LIG1        0.0310
     46 H          -0.0123   -3.1855    1.3726 H       1  LIG1        0.0310
     47 H           1.9323   -1.7723    0.6954 H       1  LIG1        0.0271
     48 H           0.9349   -2.2967   -0.7027 H       1  LIG1        0.0271
     49 H           0.7347    0.4514    0.6905 H       1  LIG1        0.0306
     50 H          -0.5417   -0.8116   -1.8049 H       1  LIG1        0.0311
     51 H          -0.9113    2.0428   -0.7600 H       1  LIG1        0.0268
     52 O           2.8840    0.9030   -3.7065 O.3     1  LIG1       -0.3804
     53 O           4.1622    3.8404   -2.3893 O.2     1  LIG1       -0.2918
     54 O           2.7328    5.1544   -4.2678 O.3     1  LIG1       -0.3874
     55 O          -4.5318   -3.5686    0.4644 O.2     1  LIG1       -0.2926
@<TRIPOS>BOND
     1     2     1    1
     2    21     2    1
     3    21     3    1
     4     3     4    1
     5     6     5    1
     6     7     6    1
     7     8     7    1
     8     9     8    1
     9     9    13    1
    10     5    10    1
    11     2    11    1
    12     1    12    1
    13    13    14    1
    14    14    54    1
    15    12    15    1
    16    15    16    1
    17    16    17    2
    18    17    18    1
    19    18    19    1
    20     6    20    1
    21    20    21    1
    22     1    22    1
    23     1    23    1
    24     3    24    1
    25     4    25    1
    26     4    26    1
    27     6    27    1
    28     7    28    1
    29     7    29    1
    30     8    30    1
    31     8    31    1
    32    32    52    1
    33    10    33    1
    34    10    34    1
    35    10    35    1
    36    11    36    1
    37    11    37    1
    38    11    38    1
    39    12    39    1
    40    12    40    1
    41    54    41    1
    42    14    42    1
    43    14    43    1
    44    16    44    1
    45    18    45    1
    46    18    46    1
    47    19    47    1
    48    19    48    1
    49    20    49    1
    50    21    50    1
    51     3    51    1
    52    52     9    1
    53    13    53    2
    54    15    55    2
    55     5     9    1
    56     5     4    1
    57     2    17    1
    58    20    19    1
