@<TRIPOS>MOLECULE
Steroids.18
 56 59 0 0 0
SMALL
GASTEIGER

@<TRIPOS>ATOM
      1 C          -3.0371   -0.6902   -0.9766 C.3     1  LIG1       -0.0413
      2 C          -4.2237   -1.3070   -0.2137 C.3     1  LIG1       -0.0257
      3 C          -3.8163   -2.6879    0.3298 C.3     1  LIG1        0.0589
      4 O          -4.9613   -3.2820    1.0341 O.3     1  LIG1       -0.3914
      5 C          -2.6356   -2.5292    1.3053 C.3     1  LIG1       -0.0050
      6 C          -1.4762   -1.8340    0.6450 C.2     1  LIG1       -0.0648
      7 C          -0.2448   -2.3478    0.7521 C.2     1  LIG1       -0.0838
      8 C           0.9717   -1.7195    0.1333 C.3     1  LIG1       -0.0311
      9 C           0.7383   -0.2456   -0.2491 C.3     1  LIG1       -0.0305
     10 C          -0.6025   -0.1468   -1.0122 C.3     1  LIG1       -0.0285
     11 C          -1.7795   -0.5480   -0.0879 C.3     1  LIG1       -0.0078
     12 C          -0.8172    1.2497   -1.6490 C.3     1  LIG1       -0.0485
     13 C           0.3726    1.6562   -2.5452 C.3     1  LIG1       -0.0440
     14 C           1.6684    1.6262   -1.7080 C.3     1  LIG1        0.0067
     15 C           1.8610    0.1881   -1.2092 C.3     1  LIG1       -0.0291
     16 C           3.2881    0.1936   -0.6410 C.3     1  LIG1       -0.0463
     17 C           4.0475    1.1486   -1.5906 C.3     1  LIG1       -0.0162
     18 C           2.9826    1.8199   -2.4972 C.3     1  LIG1        0.1288
     19 C           1.5984    2.6390   -0.5398 C.3     1  LIG1       -0.0562
     20 C          -2.0310    0.5260    0.9938 C.3     1  LIG1       -0.0555
     21 C           3.3060    3.2590   -2.8074 C.2     1  LIG1        0.1620
     22 O           4.3409    3.7841   -2.4307 O.2     1  LIG1       -0.2946
     23 C           2.3040    4.0411   -3.6069 C.3     1  LIG1       -0.0031
     24 O           2.9306    1.0507   -3.7533 O.3     1  LIG1       -0.3805
     25 H          -3.3381    0.3008   -1.3450 H       1  LIG1        0.0274
     26 H          -2.7969   -1.3371   -1.8326 H       1  LIG1        0.0274
     27 H          -5.0735   -1.4247   -0.9018 H       1  LIG1        0.0290
     28 H          -4.5163   -0.6493    0.6171 H       1  LIG1        0.0290
     29 H          -3.5147   -3.3397   -0.5033 H       1  LIG1        0.0596
     30 H          -5.2990   -2.7675    1.7582 H       1  LIG1        0.2097
     31 H          -2.3304   -3.5268    1.6532 H       1  LIG1        0.0335
     32 H          -2.9663   -1.9355    2.1700 H       1  LIG1        0.0335
     33 H          -0.1116   -3.2770    1.3030 H       1  LIG1        0.0571
     34 H           1.2143   -2.2798   -0.7817 H       1  LIG1        0.0310
     35 H           1.8226   -1.7812    0.8272 H       1  LIG1        0.0310
     36 H           0.7268    0.3834    0.6520 H       1  LIG1        0.0309
     37 H          -0.5578   -0.8753   -1.8356 H       1  LIG1        0.0311
     38 H          -0.9444    2.0074   -0.8647 H       1  LIG1        0.0268
     39 H          -1.7211    1.2253   -2.2731 H       1  LIG1        0.0268
     40 H           0.1926    2.6641   -2.9443 H       1  LIG1        0.0271
     41 H           0.4493    0.9412   -3.3780 H       1  LIG1        0.0271
     42 H           1.8487   -0.4836   -2.0809 H       1  LIG1        0.0309
     43 H           3.7242   -0.8162   -0.6337 H       1  LIG1        0.0269
     44 H           3.2813    0.6135    0.3751 H       1  LIG1        0.0269
     45 H           4.7721    0.5932   -2.2043 H       1  LIG1        0.0297
     46 H           4.5731    1.8979   -0.9811 H       1  LIG1        0.0297
     47 H           1.4479    3.6493   -0.9455 H       1  LIG1        0.0236
     48 H           2.5390    2.6191    0.0292 H       1  LIG1        0.0236
     49 H           0.7674    2.3968    0.1369 H       1  LIG1        0.0236
     50 H          -1.1199    0.6721    1.5921 H       1  LIG1        0.0238
     51 H          -2.8442    0.1954    1.6568 H       1  LIG1        0.0238
     52 H          -2.3205    1.4771    0.5251 H       1  LIG1        0.0238
     53 H           2.7532    4.9889   -3.9377 H       1  LIG1        0.0306
     54 H           1.4255    4.2638   -2.9849 H       1  LIG1        0.0306
     55 H           1.9895    3.4624   -4.4876 H       1  LIG1        0.0306
     56 H           2.2812    1.3347   -4.3858 H       1  LIG1        0.2107
@<TRIPOS>BOND
     1     1     2    1
     2     2     3    1
     3     3     4    1
     4     3     5    1
     5     5     6    1
     6     6     7    2
     7     7     8    1
     8     8     9    1
     9     9    10    1
    10     1    11    1
    11    10    12    1
    12    12    13    1
    13    13    14    1
    14     9    15    1
    15    15    16    1
    16    16    17    1
    17    14    18    1
    18    14    19    1
    19    11    20    1
    20    18    21    1
    21    21    22    2
    22    21    23    1
    23     6    11    1
    24    10    11    1
    25    14    15    1
    26    17    18    1
    27    18    24    1
    28     1    25    1
    29     1    26    1
    30     2    27    1
    31     2    28    1
    32     3    29    1
    33     4    30    1
    34     5    31    1
    35     5    32    1
    36     7    33    1
    37     8    34    1
    38     8    35    1
    39     9    36    1
    40    10    37    1
    41    12    38    1
    42    12    39    1
    43    13    40    1
    44    13    41    1
    45    15    42    1
    46    16    43    1
    47    16    44    1
    48    17    45    1
    49    17    46    1
    50    19    47    1
    51    19    48    1
    52    19    49    1
    53    20    50    1
    54    20    51    1
    55    20    52    1
    56    23    53    1
    57    23    54    1
    58    23    55    1
    59    24    56    1
