@<TRIPOS>MOLECULE
Steroids.14
 45 48 0 0 0
SMALL
GASTEIGER

@<TRIPOS>ATOM
      1 C          -2.9949   -0.7795   -0.9705 C.ar    1  LIG1       -0.0556
      2 C          -1.6865   -1.0360   -0.5465 C.ar    1  LIG1       -0.0406
      3 C          -0.8242    1.0145   -1.8393 C.3     1  LIG1       -0.0453
      4 C           0.3890    1.6149   -2.5906 C.3     1  LIG1       -0.0443
      5 C           1.6167    1.6320   -1.6599 C.3     1  LIG1       -0.0004
      6 C           1.9012    0.1914   -1.2145 C.3     1  LIG1       -0.0273
      7 C           3.2784    0.2973   -0.5433 C.3     1  LIG1       -0.0207
      8 C           4.0192    1.3245   -1.4320 C.3     1  LIG1        0.0818
      9 C           2.9502    1.9652   -2.3517 C.3     1  LIG1        0.0866
     10 C           1.3888    2.6003   -0.4746 C.3     1  LIG1       -0.0568
     11 C          -4.0799   -1.3996   -0.3472 C.ar    1  LIG1       -0.0316
     12 C          -3.8644   -2.2912    0.7053 C.ar    1  LIG1        0.0728
     13 C          -2.5618   -2.5363    1.1460 C.ar    1  LIG1       -0.0284
     14 C          -1.4772   -1.8971    0.5397 C.ar    1  LIG1       -0.0414
     15 C          -0.0842   -2.1727    1.1094 C.3     1  LIG1       -0.0270
     16 C           1.0324   -1.7721    0.1279 C.3     1  LIG1       -0.0453
     17 C           0.7400   -0.3451   -0.3621 C.3     1  LIG1       -0.0304
     18 C          -0.5022   -0.3950   -1.2803 C.3     1  LIG1       -0.0124
     19 H          -4.6670   -3.4852    1.9786 H       1  LIG1        0.2173
     20 H          -3.1809   -0.0999   -1.7925 H       1  LIG1        0.0621
     21 H          -1.6546    0.9469   -2.5560 H       1  LIG1        0.0271
     22 H          -1.1161    1.6760   -1.0110 H       1  LIG1        0.0271
     23 H           2.0074   -0.4412   -2.1090 H       1  LIG1        0.0310
     24 H           3.1659    0.6960    0.4754 H       1  LIG1        0.0293
     25 H           4.4835    2.0894   -0.7925 H       1  LIG1        0.0619
     26 H           2.9729    1.4701   -3.3338 H       1  LIG1        0.0624
     27 H           0.5069    2.3015    0.1085 H       1  LIG1        0.0235
     28 H          -5.0889   -1.1903   -0.6833 H       1  LIG1        0.0643
     29 H           0.6105    0.9898   -3.4680 H       1  LIG1        0.0271
     30 H           0.1569    2.6382   -2.9195 H       1  LIG1        0.0271
     31 H          -2.3909   -3.2251    1.9655 H       1  LIG1        0.0646
     32 H           3.7908   -0.6754   -0.5155 H       1  LIG1        0.0293
     33 H           0.0319   -1.5837    2.0311 H       1  LIG1        0.0313
     34 H           4.7202   -0.0282   -2.8208 H       1  LIG1        0.2098
     35 H           0.0142   -3.2417    1.3489 H       1  LIG1        0.0313
     36 H           2.0010   -1.8036    0.6476 H       1  LIG1        0.0271
     37 H           2.5077    3.8536   -3.0432 H       1  LIG1        0.2099
     38 H           1.0500   -2.4614   -0.7290 H       1  LIG1        0.0271
     39 H           0.5621    0.3072    0.5047 H       1  LIG1        0.0309
     40 H           2.2702    2.6081    0.1825 H       1  LIG1        0.0235
     41 H           1.2282    3.6138   -0.8700 H       1  LIG1        0.0235
     42 H          -0.2623   -1.0423   -2.1370 H       1  LIG1        0.0351
     43 O           5.0445    0.6554   -2.2461 O.3     1  LIG1       -0.3892
     44 O           3.1569    3.4123   -2.5085 O.3     1  LIG1       -0.3886
     45 O          -4.8749   -2.8869    1.2700 O.3     1  LIG1       -0.3598
@<TRIPOS>BOND
     1     2     1   ar
     2     2    14   ar
     3     4     3    1
     4     5     4    1
     5     5     6    1
     6     6     7    1
     7     8     7    1
     8     9     8    1
     9     9     5    1
    10     5    10    1
    11     1    11   ar
    12    11    12   ar
    13    13    12   ar
    14    14    13   ar
    15    14    15    1
    16    15    16    1
    17     6    17    1
    18    18     2    1
    19    45    19    1
    20     1    20    1
    21     3    21    1
    22     3    22    1
    23     6    23    1
    24     7    24    1
    25     8    25    1
    26     9    26    1
    27    10    27    1
    28    11    28    1
    29     4    29    1
    30     4    30    1
    31    13    31    1
    32     7    32    1
    33    15    33    1
    34    43    34    1
    35    15    35    1
    36    16    36    1
    37    37    44    1
    38    16    38    1
    39    17    39    1
    40    10    40    1
    41    10    41    1
    42    18    42    1
    43     8    43    1
    44    44     9    1
    45    12    45    1
    46     3    18    1
    47    16    17    1
    48    17    18    1
