@<TRIPOS>MOLECULE
Steroids.16
 51 54 0 0 0
SMALL
GASTEIGER

@<TRIPOS>ATOM
      1 C          -3.2016   -0.1858   -0.0204 C.3     1  LIG1       -0.0447
      2 C          -1.7400   -0.3223    0.4705 C.3     1  LIG1       -0.0259
      3 C          -0.8898    1.3432   -1.3056 C.3     1  LIG1       -0.0485
      4 C           0.1839    1.6996   -2.3656 C.3     1  LIG1       -0.0403
      5 C           1.5816    1.5574   -1.7414 C.3     1  LIG1        0.0292
      6 C           1.7312    0.1123   -1.2373 C.3     1  LIG1       -0.0254
      7 C           3.2330   -0.0086   -0.9252 C.3     1  LIG1       -0.0423
      8 C           3.9272    0.7930   -2.0565 C.3     1  LIG1        0.0066
      9 C           2.7988    1.6169   -2.6077 C.2     1  LIG1        0.1394
     10 C           1.7987    2.6266   -0.6510 C.3     1  LIG1       -0.0525
     11 C          -1.6360    0.6938    1.6283 C.3     1  LIG1       -0.0590
     12 C          -3.6015   -1.2505   -1.0563 C.3     1  LIG1       -0.0263
     13 C          -3.3851   -2.6527   -0.4531 C.3     1  LIG1        0.0555
     14 C          -1.9253   -2.8237    0.0068 C.3     1  LIG1       -0.0235
     15 C          -1.5465   -1.7472    1.0415 C.3     1  LIG1       -0.0330
     16 C          -0.0997   -1.9917    1.5209 C.3     1  LIG1       -0.0493
     17 C           0.9689   -1.6070    0.4714 C.3     1  LIG1       -0.0493
     18 C           0.7528   -0.1782   -0.0763 C.3     1  LIG1       -0.0339
     19 C          -0.6846   -0.0419   -0.6398 C.3     1  LIG1       -0.0322
     20 H          -3.3586    0.8171   -0.4367 H       1  LIG1        0.0271
     21 H           0.0684   -1.3964    2.4268 H       1  LIG1        0.0268
     22 H           1.9556   -1.6598    0.9570 H       1  LIG1        0.0268
     23 H           0.9402   -2.3187   -0.3651 H       1  LIG1        0.0268
     24 H           0.9182    0.5490    0.7322 H       1  LIG1        0.0306
     25 H          -0.7994   -0.7988   -1.4267 H       1  LIG1        0.0308
     26 H          -1.8649    1.3448   -1.8090 H       1  LIG1        0.0268
     27 H          -0.8877    2.1144   -0.5222 H       1  LIG1        0.0268
     28 H           0.1005    1.0274   -3.2294 H       1  LIG1        0.0274
     29 H           0.0411    2.7382   -2.6939 H       1  LIG1        0.0274
     30 H           1.5092   -0.5792   -2.0649 H       1  LIG1        0.0312
     31 H          -3.8652   -0.3151    0.8482 H       1  LIG1        0.0271
     32 H           3.5379   -1.0636   -0.9208 H       1  LIG1        0.0272
     33 H           3.4258    0.4450    0.0589 H       1  LIG1        0.0272
     34 H           4.7473    1.4107   -1.6576 H       1  LIG1        0.0341
     35 H           4.3004    0.1177   -2.8385 H       1  LIG1        0.0341
     36 H           2.7811    2.4903   -0.1754 H       1  LIG1        0.0239
     37 H           1.7673    3.6193   -1.1271 H       1  LIG1        0.0239
     38 H           1.0108    2.5597    0.1100 H       1  LIG1        0.0239
     39 H          -0.6160    0.7321    2.0302 H       1  LIG1        0.0235
     40 H          -1.9280    1.6930    1.2695 H       1  LIG1        0.0235
     41 H          -3.0050   -1.1311   -1.9718 H       1  LIG1        0.0290
     42 H          -2.3293    0.3835    2.4270 H       1  LIG1        0.0235
     43 H          -4.5589   -3.6645   -1.8140 H       1  LIG1        0.2097
     44 H          -4.6698   -1.1226   -1.2914 H       1  LIG1        0.0290
     45 H          -4.0521   -2.7931    0.4119 H       1  LIG1        0.0593
     46 H          -1.2528   -2.7591   -0.8593 H       1  LIG1        0.0292
     47 H          -1.8239   -3.8108    0.4791 H       1  LIG1        0.0292
     48 H          -2.2167   -1.8612    1.9073 H       1  LIG1        0.0306
     49 H           0.0140   -3.0600    1.7652 H       1  LIG1        0.0268
     50 O           2.8605    2.2318   -3.6588 O.2     1  LIG1       -0.2968
     51 O          -3.6714   -3.6703   -1.4748 O.3     1  LIG1       -0.3917
@<TRIPOS>BOND
     1     2     1    1
     2     2    11    1
     3     3     4    1
     4     4     5    1
     5     5     6    1
     6     6     7    1
     7     7     8    1
     8     8     9    1
     9     9     5    1
    10     5    10    1
    11    11    39    1
    12     1    12    1
    13    12    13    1
    14    13    14    1
    15     2    15    1
    16    15    16    1
    17    16    17    1
    18     6    18    1
    19    19     2    1
    20     1    20    1
    21    16    21    1
    22    17    22    1
    23    17    23    1
    24    18    24    1
    25    19    25    1
    26     3    26    1
    27     3    27    1
    28     4    28    1
    29     4    29    1
    30     6    30    1
    31     1    31    1
    32     7    32    1
    33     7    33    1
    34     8    34    1
    35     8    35    1
    36    10    36    1
    37    10    37    1
    38    10    38    1
    39    11    40    1
    40    12    41    1
    41    11    42    1
    42    51    43    1
    43    12    44    1
    44    13    45    1
    45    14    46    1
    46    14    47    1
    47    15    48    1
    48    16    49    1
    49     9    50    2
    50    13    51    1
    51     3    19    1
    52    14    15    1
    53    17    18    1
    54    18    19    1
