@<TRIPOS>MOLECULE
Steroids.5
 51 54 0 0 0
SMALL
GASTEIGER

@<TRIPOS>ATOM
      1 C          -3.0143   -0.7077   -1.0019 C.3     1  LIG1       -0.0447
      2 C          -1.7626   -0.5487   -0.1062 C.3     1  LIG1       -0.0259
      3 C          -0.8197    1.1846   -1.7545 C.3     1  LIG1       -0.0485
      4 C           0.3821    1.5619   -2.6486 C.3     1  LIG1       -0.0403
      5 C           1.6408    1.6576   -1.7684 C.3     1  LIG1        0.0292
      6 C           1.8846    0.2876   -1.1175 C.3     1  LIG1       -0.0254
      7 C           3.3072    0.4027   -0.5356 C.3     1  LIG1       -0.0423
      8 C           4.0811    1.1492   -1.6481 C.3     1  LIG1        0.0066
      9 C           2.9628    1.7328   -2.4647 C.2     1  LIG1        0.1394
     10 C           1.5270    2.8052   -0.7384 C.3     1  LIG1       -0.0525
     11 C          -2.0295    0.5182    0.9870 C.3     1  LIG1       -0.0590
     12 C          -4.2117   -1.2743   -0.2101 C.3     1  LIG1       -0.0263
     13 C          -3.8489   -2.6337    0.4170 C.3     1  LIG1        0.0555
     14 C          -2.6223   -2.4739    1.3361 C.3     1  LIG1       -0.0235
     15 C          -1.4367   -1.9312    0.5122 C.3     1  LIG1       -0.0330
     16 C          -0.1569   -1.8712    1.3714 C.3     1  LIG1       -0.0493
     17 C           1.0274   -1.4527    0.4807 C.3     1  LIG1       -0.0493
     18 C           0.7442   -0.0748   -0.1493 C.3     1  LIG1       -0.0339
     19 C          -0.5574   -0.1392   -0.9898 C.3     1  LIG1       -0.0322
     20 O          -3.5476   -3.6011   -0.6480 O.3     1  LIG1       -0.3917
     21 O           3.1109    2.1769   -3.5906 O.2     1  LIG1       -0.2968
     22 H          -2.7778   -1.3940   -1.8282 H       1  LIG1        0.0271
     23 H          -3.3034    0.2689   -1.4145 H       1  LIG1        0.0271
     24 H          -1.6979    1.0660   -2.4043 H       1  LIG1        0.0268
     25 H          -1.0091    2.0004   -1.0431 H       1  LIG1        0.0268
     26 H           0.1943    2.5259   -3.1438 H       1  LIG1        0.0274
     27 H           0.5257    0.7791   -3.4082 H       1  LIG1        0.0274
     28 H           1.9112   -0.4764   -1.9105 H       1  LIG1        0.0312
     29 H           3.7437   -0.5844   -0.3233 H       1  LIG1        0.0272
     30 H           3.2840    1.0122    0.3797 H       1  LIG1        0.0272
     31 H           4.6606    0.4380   -2.2539 H       1  LIG1        0.0341
     32 H           4.7384    1.9244   -1.2273 H       1  LIG1        0.0341
     33 H           1.3376    3.7472   -1.2740 H       1  LIG1        0.0239
     34 H           2.4638    2.8967   -0.1694 H       1  LIG1        0.0239
     35 H           0.6989    2.6153   -0.0405 H       1  LIG1        0.0239
     36 H          -1.3503    1.3742    0.8655 H       1  LIG1        0.0235
     37 H          -1.8774    0.0919    1.9885 H       1  LIG1        0.0235
     38 H          -3.0644    0.8820    0.9142 H       1  LIG1        0.0235
     39 H          -5.0619   -1.4073   -0.8950 H       1  LIG1        0.0290
     40 H          -4.4980   -0.5740    0.5869 H       1  LIG1        0.0290
     41 H          -4.7008   -2.9981    1.0073 H       1  LIG1        0.0593
     42 H          -2.3560   -3.4550    1.7564 H       1  LIG1        0.0292
     43 H          -2.8628   -1.7810    2.1551 H       1  LIG1        0.0292
     44 H          -1.2496   -2.6379   -0.3093 H       1  LIG1        0.0306
     45 H           0.0438   -2.8669    1.7918 H       1  LIG1        0.0268
     46 H          -0.2754   -1.1482    2.1907 H       1  LIG1        0.0268
     47 H           1.1588   -2.1973   -0.3181 H       1  LIG1        0.0268
     48 H           1.9430   -1.4016    1.0868 H       1  LIG1        0.0268
     49 H           0.6596    0.6781    0.6463 H       1  LIG1        0.0306
     50 H          -0.4203   -0.9259   -1.7474 H       1  LIG1        0.0308
     51 H          -4.2526   -3.7520   -1.2667 H       1  LIG1        0.2097
@<TRIPOS>BOND
     1     2     1    1
     2     2    11    1
     3     3     4    1
     4     4     5    1
     5     5     6    1
     6     6     7    1
     7     7     8    1
     8     8     9    1
     9     9     5    1
    10     5    10    1
    11     1    12    1
    12    12    13    1
    13    13    14    1
    14     2    15    1
    15    15    16    1
    16    16    17    1
    17     6    18    1
    18    19     2    1
    19    13    20    1
    20     9    21    2
    21     3    19    1
    22    14    15    1
    23    17    18    1
    24    18    19    1
    25     1    22    1
    26     1    23    1
    27     3    24    1
    28     3    25    1
    29     4    26    1
    30     4    27    1
    31     6    28    1
    32     7    29    1
    33     7    30    1
    34     8    31    1
    35     8    32    1
    36    10    33    1
    37    10    34    1
    38    10    35    1
    39    11    36    1
    40    11    37    1
    41    11    38    1
    42    12    39    1
    43    12    40    1
    44    13    41    1
    45    14    42    1
    46    14    43    1
    47    15    44    1
    48    16    45    1
    49    16    46    1
    50    17    47    1
    51    17    48    1
    52    18    49    1
    53    19    50    1
    54    20    51    1
