@<TRIPOS>MOLECULE
Steroids.9
 49 52 0 0 0
SMALL
GASTEIGER

@<TRIPOS>ATOM
      1 C          -3.0327   -0.6650   -0.9507 C.3     1  LIG1       -0.0413
      2 C          -1.7723   -0.5216   -0.0638 C.3     1  LIG1       -0.0078
      3 C          -0.8179    1.3263   -1.5764 C.3     1  LIG1       -0.0482
      4 C           0.3478    1.7419   -2.5012 C.3     1  LIG1       -0.0403
      5 C           1.6619    1.6629   -1.7038 C.3     1  LIG1        0.0292
      6 C           1.8520    0.2164   -1.2270 C.3     1  LIG1       -0.0251
      7 C           3.3065    0.1730   -0.7210 C.3     1  LIG1       -0.0423
      8 C           4.0687    1.0014   -1.7826 C.3     1  LIG1        0.0066
      9 C           2.9454    1.7278   -2.4702 C.2     1  LIG1        0.1394
     10 C           1.6938    2.6898   -0.5491 C.3     1  LIG1       -0.0525
     11 C          -2.0300    0.5370    1.0319 C.3     1  LIG1       -0.0555
     12 C          -4.2100   -1.2987   -0.1867 C.3     1  LIG1       -0.0257
     13 C          -3.7891   -2.6962    0.2998 C.3     1  LIG1        0.0589
     14 C          -2.6101   -2.5518    1.2786 C.3     1  LIG1       -0.0050
     15 C          -1.4579   -1.8249    0.6375 C.2     1  LIG1       -0.0648
     16 C          -0.2260   -2.3370    0.7250 C.2     1  LIG1       -0.0838
     17 C           0.9922   -1.6820    0.1388 C.3     1  LIG1       -0.0310
     18 C           0.7480   -0.2091   -0.2433 C.3     1  LIG1       -0.0302
     19 C          -0.6029   -0.0926   -0.9871 C.3     1  LIG1       -0.0285
     20 O           3.0583    2.2671   -3.5586 O.2     1  LIG1       -0.2968
     21 O          -4.9193   -3.3393    0.9839 O.3     1  LIG1       -0.3914
     22 H          -3.3435    0.3250   -1.3145 H       1  LIG1        0.0274
     23 H          -2.7925   -1.3080   -1.8105 H       1  LIG1        0.0274
     24 H          -0.9004    2.0586   -0.7615 H       1  LIG1        0.0268
     25 H          -1.7452    1.3408   -2.1658 H       1  LIG1        0.0268
     26 H           0.1914    2.7673   -2.8656 H       1  LIG1        0.0274
     27 H           0.3950    1.0514   -3.3560 H       1  LIG1        0.0274
     28 H           1.7887   -0.4453   -2.1049 H       1  LIG1        0.0313
     29 H           3.6851   -0.8575   -0.6547 H       1  LIG1        0.0272
     30 H           3.3726    0.6661    0.2601 H       1  LIG1        0.0272
     31 H           4.5822    0.3358   -2.4916 H       1  LIG1        0.0341
     32 H           4.7841    1.6918   -1.3118 H       1  LIG1        0.0341
     33 H           1.5660    3.6992   -0.9671 H       1  LIG1        0.0239
     34 H           2.6577    2.6379   -0.0212 H       1  LIG1        0.0239
     35 H           0.8815    2.4905    0.1638 H       1  LIG1        0.0239
     36 H          -2.3630    1.4792    0.5729 H       1  LIG1        0.0238
     37 H          -1.1059    0.7134    1.6013 H       1  LIG1        0.0238
     38 H          -2.8111    0.1776    1.7179 H       1  LIG1        0.0238
     39 H          -5.0736   -1.3900   -0.8615 H       1  LIG1        0.0290
     40 H          -4.4839   -0.6714    0.6742 H       1  LIG1        0.0290
     41 H          -3.4854   -3.3096   -0.5611 H       1  LIG1        0.0596
     42 H          -2.2945   -3.5544    1.6020 H       1  LIG1        0.0335
     43 H          -2.9509   -1.9831    2.1554 H       1  LIG1        0.0335
     44 H          -0.0910   -3.2841    1.2446 H       1  LIG1        0.0571
     45 H           1.2795   -2.2438   -0.7622 H       1  LIG1        0.0310
     46 H           1.8186   -1.7209    0.8630 H       1  LIG1        0.0310
     47 H           0.7551    0.4250    0.6544 H       1  LIG1        0.0309
     48 H          -0.5670   -0.7959   -1.8327 H       1  LIG1        0.0311
     49 H          -5.2506   -2.8733    1.7428 H       1  LIG1        0.2097
@<TRIPOS>BOND
     1     1    12    1
     2     2     1    1
     3    19     3    1
     4     3     4    1
     5     6     5    1
     6     6     7    1
     7     7     8    1
     8     8     9    1
     9     5     9    1
    10     5    10    1
    11     2    11    1
    12    12    13    1
    13    14    13    1
    14    15    14    1
    15    16    17    1
    16    17    18    1
    17    18     6    1
    18    19     2    1
    19     9    20    2
    20    13    21    1
    21     2    15    1
    22    18    19    1
    23     5     4    1
    24    15    16    2
    25     1    22    1
    26     1    23    1
    27     3    24    1
    28     3    25    1
    29     4    26    1
    30     4    27    1
    31     6    28    1
    32     7    29    1
    33     7    30    1
    34     8    31    1
    35     8    32    1
    36    10    33    1
    37    10    34    1
    38    10    35    1
    39    11    36    1
    40    11    37    1
    41    11    38    1
    42    12    39    1
    43    12    40    1
    44    13    41    1
    45    14    42    1
    46    14    43    1
    47    16    44    1
    48    17    45    1
    49    17    46    1
    50    18    47    1
    51    19    48    1
    52    21    49    1
