@<TRIPOS>MOLECULE
Steroids.2
 53 56 0 0 0
SMALL
GASTEIGER

@<TRIPOS>ATOM
      1 C          -2.9982   -0.7720   -1.0579 C.3     1  LIG1       -0.0447
      2 C          -1.7643   -0.5865   -0.1456 C.3     1  LIG1       -0.0259
      3 C          -0.7982    1.0920   -1.8405 C.3     1  LIG1       -0.0488
      4 C           0.4321    1.4820   -2.6917 C.3     1  LIG1       -0.0447
      5 C           1.6533    1.6278   -1.7661 C.3     1  LIG1       -0.0030
      6 C           1.8951    0.2705   -1.0916 C.3     1  LIG1       -0.0301
      7 C           3.2861    0.4338   -0.4600 C.3     1  LIG1       -0.0470
      8 C           4.0440    1.3166   -1.4801 C.3     1  LIG1       -0.0260
      9 C           2.9935    1.8181   -2.4985 C.3     1  LIG1        0.0608
     10 C           1.4492    2.7774   -0.7499 C.3     1  LIG1       -0.0569
     11 C          -2.0578    0.5080    0.9084 C.3     1  LIG1       -0.0590
     12 C          -4.2166   -1.2948   -0.2675 C.3     1  LIG1       -0.0263
     13 C          -3.8833   -2.6176    0.4513 C.3     1  LIG1        0.0555
     14 C          -2.6512   -2.4431    1.3615 C.3     1  LIG1       -0.0235
     15 C          -1.4542   -1.9478    0.5229 C.3     1  LIG1       -0.0330
     16 C          -0.1877   -1.8704    1.3988 C.3     1  LIG1       -0.0493
     17 C           1.0154   -1.4433    0.5342 C.3     1  LIG1       -0.0494
     18 C           0.7334   -0.0888   -0.1469 C.3     1  LIG1       -0.0342
     19 C          -0.5437   -0.1976   -1.0178 C.3     1  LIG1       -0.0322
     20 O          -3.6161   -3.6664   -0.5438 O.3     1  LIG1       -0.3917
     21 O           3.2337    3.2181   -2.8769 O.3     1  LIG1       -0.3912
     22 H          -3.2702    0.1890   -1.5169 H       1  LIG1        0.0271
     23 H          -2.7489   -1.4962   -1.8479 H       1  LIG1        0.0271
     24 H          -1.0452    1.9231   -1.1659 H       1  LIG1        0.0268
     25 H          -1.6406    0.9260   -2.5259 H       1  LIG1        0.0268
     26 H           0.6268    0.6887   -3.4282 H       1  LIG1        0.0271
     27 H           0.2415    2.4302   -3.2153 H       1  LIG1        0.0271
     28 H           1.9672   -0.5001   -1.8739 H       1  LIG1        0.0309
     29 H           3.7755   -0.5396   -0.3129 H       1  LIG1        0.0268
     30 H           3.1989    0.9651    0.4988 H       1  LIG1        0.0268
     31 H           4.4939    2.1706   -0.9531 H       1  LIG1        0.0290
     32 H           4.8241    0.7412   -1.9989 H       1  LIG1        0.0290
     33 H           3.0126    1.1712   -3.3883 H       1  LIG1        0.0598
     34 H           1.3198    3.7198   -1.3018 H       1  LIG1        0.0235
     35 H           0.5601    2.6029   -0.1292 H       1  LIG1        0.0235
     36 H           2.3300    2.8630   -0.0974 H       1  LIG1        0.0235
     37 H          -1.1848    0.6582    1.5586 H       1  LIG1        0.0235
     38 H          -2.2977    1.4535    0.4018 H       1  LIG1        0.0235
     39 H          -2.9149    0.2157    1.5306 H       1  LIG1        0.0235
     40 H          -4.5231   -0.5444    0.4750 H       1  LIG1        0.0290
     41 H          -5.0468   -1.4669   -0.9680 H       1  LIG1        0.0290
     42 H          -4.7453   -2.9202    1.0640 H       1  LIG1        0.0593
     43 H          -2.8776   -1.7254    2.1631 H       1  LIG1        0.0292
     44 H          -2.3991   -3.4146    1.8108 H       1  LIG1        0.0292
     45 H          -1.2677   -2.6856   -0.2721 H       1  LIG1        0.0306
     46 H          -0.3358   -1.1509    2.2166 H       1  LIG1        0.0268
     47 H           0.0138   -2.8657    1.8220 H       1  LIG1        0.0268
     48 H           1.9084   -1.3573    1.1701 H       1  LIG1        0.0268
     49 H           1.1876   -2.2066   -0.2388 H       1  LIG1        0.0268
     50 H           0.6205    0.6874    0.6223 H       1  LIG1        0.0306
     51 H          -0.3794   -1.0108   -1.7408 H       1  LIG1        0.0308
     52 H          -3.4130   -4.5206   -0.1812 H       1  LIG1        0.2097
     53 H           4.0694    3.3834   -3.2979 H       1  LIG1        0.2098
@<TRIPOS>BOND
     1     1     2    1
     2     2    19    1
     3     4     3    1
     4     5     4    1
     5     5     6    1
     6     6    18    1
     7     7     8    1
     8     8     9    1
     9     9     5    1
    10     5    10    1
    11     2    11    1
    12    12     1    1
    13    13    12    1
    14    14    13    1
    15    15    14    1
    16    16    15    1
    17    17    16    1
    18    18    17    1
    19    19    18    1
    20    13    20    1
    21     9    21    1
    22     2    15    1
    23     6     7    1
    24    19     3    1
    25     1    22    1
    26     1    23    1
    27     3    24    1
    28     3    25    1
    29     4    26    1
    30     4    27    1
    31     6    28    1
    32     7    29    1
    33     7    30    1
    34     8    31    1
    35     8    32    1
    36     9    33    1
    37    10    34    1
    38    10    35    1
    39    10    36    1
    40    11    37    1
    41    11    38    1
    42    11    39    1
    43    12    40    1
    44    12    41    1
    45    13    42    1
    46    14    43    1
    47    14    44    1
    48    15    45    1
    49    16    46    1
    50    16    47    1
    51    17    48    1
    52    17    49    1
    53    18    50    1
    54    19    51    1
    55    20    52    1
    56    21    53    1
