@<TRIPOS>MOLECULE
Steroids.4
 47 50 0 0 0
SMALL
GASTEIGER

@<TRIPOS>ATOM
      1 C          -2.9968   -0.8001   -1.1045 C.3     1  LIG1       -0.0366
      2 C          -1.7873   -0.5828   -0.1642 C.3     1  LIG1       -0.0072
      3 C          -0.8166    1.2887   -1.6322 C.3     1  LIG1       -0.0482
      4 C           0.3654    1.7365   -2.5218 C.3     1  LIG1       -0.0403
      5 C           1.6632    1.6635   -1.6962 C.3     1  LIG1        0.0292
      6 C           1.8613    0.2097   -1.2422 C.3     1  LIG1       -0.0254
      7 C           3.3083    0.1754   -0.7132 C.3     1  LIG1       -0.0423
      8 C           4.0796    1.0387   -1.7395 C.3     1  LIG1        0.0066
      9 C           2.9620    1.7678   -2.4310 C.2     1  LIG1        0.1394
     10 C           1.6490    2.6679   -0.5209 C.3     1  LIG1       -0.0525
     11 C          -2.1306    0.4867    0.8943 C.3     1  LIG1       -0.0555
     12 C          -4.1860   -1.4028   -0.3337 C.3     1  LIG1        0.0106
     13 C          -3.7401   -2.6292    0.4114 C.2     1  LIG1        0.1560
     14 C          -2.4771   -2.7702    0.8272 C.2     1  LIG1       -0.0194
     15 C          -1.5191   -1.8645    0.5946 C.2     1  LIG1       -0.0600
     16 C          -0.1307   -2.0929    1.1304 C.3     1  LIG1       -0.0305
     17 C           0.9628   -1.6859    0.1285 C.3     1  LIG1       -0.0459
     18 C           0.7459   -0.2181   -0.2733 C.3     1  LIG1       -0.0334
     19 C          -0.5923   -0.1291   -1.0433 C.3     1  LIG1       -0.0287
     20 O          -4.5503   -3.5096    0.6462 O.2     1  LIG1       -0.2926
     21 O           3.0910    2.3398   -3.5005 O.2     1  LIG1       -0.2968
     22 H          -2.7070   -1.4997   -1.9025 H       1  LIG1        0.0277
     23 H          -3.3088    0.1536   -1.5532 H       1  LIG1        0.0277
     24 H          -1.7281    1.2907   -2.2461 H       1  LIG1        0.0268
     25 H          -0.9345    2.0140   -0.8153 H       1  LIG1        0.0268
     26 H           0.4435    1.0609   -3.3865 H       1  LIG1        0.0274
     27 H           0.2026    2.7661   -2.8721 H       1  LIG1        0.0274
     28 H           1.8133   -0.4435   -2.1275 H       1  LIG1        0.0312
     29 H           3.3497    0.6464    0.2795 H       1  LIG1        0.0272
     30 H           3.7009   -0.8505   -0.6629 H       1  LIG1        0.0272
     31 H           4.7762    1.7256   -1.2376 H       1  LIG1        0.0341
     32 H           4.6164    0.3984   -2.4543 H       1  LIG1        0.0341
     33 H           2.5953    2.6127    0.0365 H       1  LIG1        0.0239
     34 H           1.5283    3.6841   -0.9237 H       1  LIG1        0.0239
     35 H           0.8163    2.4500    0.1622 H       1  LIG1        0.0239
     36 H          -1.2349    0.7126    1.4910 H       1  LIG1        0.0238
     37 H          -2.4863    1.4035    0.4029 H       1  LIG1        0.0238
     38 H          -2.9201    0.1060    1.5589 H       1  LIG1        0.0238
     39 H          -4.5714   -0.6610    0.3802 H       1  LIG1        0.0345
     40 H          -4.9804   -1.6630   -1.0484 H       1  LIG1        0.0345
     41 H          -2.2143   -3.6708    1.3796 H       1  LIG1        0.0651
     42 H          -0.0046   -1.4983    2.0468 H       1  LIG1        0.0310
     43 H           0.0058   -3.1573    1.3725 H       1  LIG1        0.0310
     44 H           1.9493   -1.8016    0.6004 H       1  LIG1        0.0271
     45 H           0.9057   -2.3251   -0.7651 H       1  LIG1        0.0271
     46 H           0.7375    0.4224    0.6198 H       1  LIG1        0.0306
     47 H          -0.5190   -0.8266   -1.8911 H       1  LIG1        0.0311
@<TRIPOS>BOND
     1     1    12    1
     2     2    11    1
     3     3    19    1
     4     4     3    1
     5     5     4    1
     6     6     5    1
     7     6     7    1
     8     7     8    1
     9     8     9    1
    10     5    10    1
    11    12    13    1
    12    13    14    1
    13    14    15    2
    14    15    16    1
    15    16    17    1
    16    17    18    1
    17    18     6    1
    18    19     2    1
    19    13    20    2
    20     9    21    2
    21     2    15    1
    22     2     1    1
    23    19    18    1
    24     5     9    1
    25     1    22    1
    26     1    23    1
    27     3    24    1
    28     3    25    1
    29     4    26    1
    30     4    27    1
    31     6    28    1
    32     7    29    1
    33     7    30    1
    34     8    31    1
    35     8    32    1
    36    10    33    1
    37    10    34    1
    38    10    35    1
    39    11    36    1
    40    11    37    1
    41    11    38    1
    42    12    39    1
    43    12    40    1
    44    14    41    1
    45    16    42    1
    46    16    43    1
    47    17    44    1
    48    17    45    1
    49    18    46    1
    50    19    47    1
