@<TRIPOS>MOLECULE
MOLECULE_14
 84 91 0 0 0
SMALL
GASTEIGER

@<TRIPOS>ATOM
      1 C          -2.2158    2.8242   -6.1151 C.ar    1  LIG111     -0.0547
      2 C           0.3801   13.0331   -1.6628 C.3     1  LIG111     -0.0012
      3 C          -1.0583    2.1052   -5.7731 C.ar    1  LIG111     -0.0162
      4 H          -2.4817    2.9588   -7.1585 H       1  LIG111      0.0622
      5 C          -0.6751    1.9257   -4.4359 C.ar    1  LIG111      0.1588
      6 C          -1.5076    2.4514   -3.4456 C.ar    1  LIG111      0.1668
      7 C          -2.6695    3.0986   -3.8062 C.ar    1  LIG111      0.0137
      8 C          -3.0287    3.3769   -5.1179 C.ar    1  LIG111     -0.0411
      9 C          -4.2461    4.2762   -5.3682 C.3     1  LIG111     -0.0368
     10 C           0.7688   14.4985   -2.0064 C.3     1  LIG111     -0.0432
     11 H          -0.4428    1.6804   -6.5594 H       1  LIG111      0.0655
     12 C          -4.9985    4.6940   -4.0514 C.3     1  LIG111     -0.0432
     13 H          -4.9042    3.7737   -6.0876 H       1  LIG111      0.0298
     14 C          -4.0279    4.8640   -2.8322 C.3     1  LIG111      0.0720
     15 C          -2.9404    5.9470   -3.1078 C.3     1  LIG111      0.0031
     16 H          -3.8549    5.1746   -5.8716 H       1  LIG111      0.0298
     17 H          -5.4356    5.6910   -4.2285 H       1  LIG111      0.0126
     18 C          -1.8608    5.8479   -2.0414 C.ar    1  LIG111     -0.0127
     19 C          -1.5340    4.6763   -1.3596 C.ar    1  LIG111      0.0622
     20 C          -2.2280    3.3305   -1.5412 C.3     1  LIG111      0.1523
     21 H          -3.3836    6.9541   -3.1115 H       1  LIG111      0.0341
     22 C          -3.4130    3.4642   -2.5591 C.3     1  LIG111      0.0677
     23 C          -4.5101    2.4079   -2.2668 C.3     1  LIG111     -0.0518
     24 H          -2.4163    5.7994   -4.0614 H       1  LIG111      0.0341
     25 H          -2.5618    3.0163   -0.5406 H       1  LIG111      0.0809
     26 C          -5.5930    2.3939   -3.3772 C.3     1  LIG111     -0.0891
     27 H          -4.9832    2.6544   -1.3026 H       1  LIG111      0.0258
     28 H          -4.0598    1.4051   -2.1765 H       1  LIG111      0.0258
     29 N          -6.1007    3.7634   -3.6571 N.4     1  LIG111      0.3839
     30 C          -7.2916    3.7370   -4.5568 C.3     1  LIG111     -0.0872
     31 H          -6.4085    1.7309   -3.0396 H       1  LIG111      0.0059
     32 H          -5.1773    1.9463   -4.2936 H       1  LIG111      0.0059
     33 C          -7.8971    5.1477   -4.7858 C.3     1  LIG111     -0.0559
     34 H          -6.4940    4.1368   -2.7155 H       1  LIG111     -0.0813
     35 C          -8.8997    5.2529   -5.9567 C.3     1  LIG111     -0.0517
     36 H          -8.1021    3.1481   -4.0941 H       1  LIG111      0.0062
     37 H          -7.0625    3.2460   -5.5138 H       1  LIG111      0.0062
     38 C          -7.4981    5.8880   -6.0820 C.3     1  LIG111     -0.0517
     39 H          -8.1544    5.7753   -3.9173 H       1  LIG111      0.0283
     40 H          -9.7379    5.9587   -5.8464 H       1  LIG111      0.0267
     41 O          -1.2643    2.3800   -2.0803 O.3     1  LIG111     -0.4778
     42 N          -0.5167    4.9160   -0.5068 N.ar    1  LIG111     -0.3548
     43 H          -9.0816    4.3572   -6.5707 H       1  LIG111      0.0267
     44 C          -0.1927    6.2194   -0.6055 C.ar    1  LIG111      0.0471
     45 C           0.7935    6.9190    0.0894 C.ar    1  LIG111     -0.0360
     46 H          -7.4493    6.9867   -6.0281 H       1  LIG111      0.0267
     47 C           0.9266    8.2846   -0.1917 C.ar    1  LIG111     -0.0388
     48 H          -6.7999    5.3940   -6.7743 H       1  LIG111      0.0267
     49 C           0.1000    8.9160   -1.1347 C.ar    1  LIG111      0.0302
     50 C          -0.8810    8.1975   -1.8300 C.ar    1  LIG111     -0.0313
     51 H          -0.0724    4.2249    0.1154 H       1  LIG111      0.1657
     52 C          -1.0091    6.8384   -1.5450 C.ar    1  LIG111      0.0050
     53 N           0.2435   10.2409   -1.3736 N.pl3   1  LIG111     -0.3101
     54 H           1.4280    6.4231    0.8162 H       1  LIG111      0.0639
     55 C           1.2282   10.7536   -2.0910 C.3     1  LIG111      0.1895
     56 N           1.3142   12.0640   -2.2484 N.3     1  LIG111     -0.2796
     57 H           1.6814    8.8655    0.3286 H       1  LIG111      0.0637
     58 C          -0.2214   15.5162   -1.3817 C.3     1  LIG111     -0.0641
     59 H          -1.5164    8.6807   -2.5639 H       1  LIG111      0.0643
     60 H          -0.4783   10.8384   -0.9552 H       1  LIG111      0.1492
     61 H           0.0762   16.5437   -1.6444 H       1  LIG111      0.0230
     62 C           3.2550   10.3548   -3.4673 C.3     1  LIG111     -0.0012
     63 H           2.0749   12.4641   -2.8063 H       1  LIG111      0.1253
     64 C           4.4227   10.8465   -2.5680 C.3     1  LIG111     -0.0432
     65 C           5.6405   11.2935   -3.4177 C.3     1  LIG111     -0.0641
     66 H           6.4602   11.6255   -2.7611 H       1  LIG111      0.0230
     67 H          -0.6357   12.8599   -2.0553 H       1  LIG111      0.0425
     68 H           0.3829   12.9414   -0.5640 H       1  LIG111      0.0425
     69 H           0.7744   14.6278   -3.1019 H       1  LIG111      0.0275
     70 H           1.7843   14.7052   -1.6286 H       1  LIG111      0.0275
     71 H          -0.2276   15.4236   -0.2844 H       1  LIG111      0.0230
     72 H          -1.2415   15.3407   -1.7573 H       1  LIG111      0.0230
     73 N           2.1125    9.9366   -2.6433 N.3     1  LIG111     -0.2796
     74 O          -4.7592    5.2254   -1.6462 O.3     1  LIG111     -0.3888
     75 H           2.0082    8.9180   -2.5248 H       1  LIG111      0.1253
     76 O           0.5003    1.2427   -4.1179 O.3     1  LIG111     -0.5033
     77 H          -5.2005    6.0651   -1.7191 H       1  LIG111      0.2101
     78 H           0.6526    1.1892   -3.1806 H       1  LIG111      0.2923
     79 H           3.6300    9.4734   -4.0165 H       1  LIG111      0.0425
     80 H           2.9787   11.0773   -4.2507 H       1  LIG111      0.0425
     81 H           4.7264   10.0230   -1.9001 H       1  LIG111      0.0275
     82 H           4.1046   11.6874   -1.9327 H       1  LIG111      0.0275
     83 H           5.3587   12.1294   -4.0769 H       1  LIG111      0.0230
     84 H           6.0050   10.4602   -4.0385 H       1  LIG111      0.0230
@<TRIPOS>BOND
     1     4     1    1
     2    48    38    1
     3    43    35    1
     4    11     3    1
     5     1     3   ar
     6     1     8   ar
     7    13     9    1
     8    38    46    1
     9    38    35    1
    10    38    33    1
    11    35    40    1
    12    35    33    1
    13    16     9    1
    14     3     5   ar
    15    37    30    1
    16     9     8    1
    17     9    12    1
    18     8     7   ar
    19    33    30    1
    20    33    39    1
    21    30    36    1
    22    30    29    1
    23     5    76    1
    24     5     6   ar
    25    32    26    1
    26    80    62    1
    27    17    12    1
    28    76    78    1
    29    83    65    1
    30    24    15    1
    31    12    29    1
    32    12    14    1
    33    84    65    1
    34    79    62    1
    35     7     6   ar
    36     7    22    1
    37    29    26    1
    38    29    34    1
    39    62    73    1
    40    62    64    1
    41     6    41    1
    42    65    66    1
    43    65    64    1
    44    26    31    1
    45    26    23    1
    46    21    15    1
    47    15    14    1
    48    15    18    1
    49    69    10    1
    50    14    22    1
    51    14    74    1
    52    63    56    1
    53    73    75    1
    54    73    55    1
    55    64    82    1
    56    64    81    1
    57    59    50    1
    58    22    23    1
    59    22    20    1
    60    23    28    1
    61    23    27    1
    62    56    55    1
    63    56     2    1
    64    55    53    1
    65    41    20    1
    66    67     2    1
    67    18    52   ar
    68    18    19   ar
    69    10     2    1
    70    10    70    1
    71    10    58    1
    72    50    52   ar
    73    50    49   ar
    74    72    58    1
    75    77    74    1
    76     2    68    1
    77    61    58    1
    78    52    44   ar
    79    20    19    1
    80    20    25    1
    81    58    71    1
    82    53    49    1
    83    53    60    1
    84    19    42   ar
    85    49    47   ar
    86    44    42   ar
    87    44    45   ar
    88    42    51    1
    89    47    45   ar
    90    47    57    1
    91    45    54    1
