@<TRIPOS>MOLECULE
MOLECULE_29
 81 88 0 0 0
SMALL
GASTEIGER

@<TRIPOS>ATOM
      1 C          -2.2172    2.8205   -6.1153 C.ar    1  LIG111     -0.0547
      2 C           2.1204   15.7260   -6.2824 C.3     1  LIG111     -0.0558
      3 C          -1.0563    2.1071   -5.7731 C.ar    1  LIG111     -0.0162
      4 C           2.8943   16.1414   -7.5605 C.3     1  LIG111     -0.0653
      5 C          -0.6715    1.9310   -4.4360 C.ar    1  LIG111      0.1588
      6 C          -1.5074    2.4515   -3.4457 C.ar    1  LIG111      0.1668
      7 C          -2.6703    3.0970   -3.8066 C.ar    1  LIG111      0.0137
      8 C          -3.0299    3.3739   -5.1184 C.ar    1  LIG111     -0.0411
      9 C          -4.2472    4.2731   -5.3691 C.3     1  LIG111     -0.0368
     10 H          -2.4858    2.9505   -7.1585 H       1  LIG111      0.0622
     11 H           1.0459   15.9242   -6.4326 H       1  LIG111      0.0263
     12 C          -4.9973    4.6951   -4.0523 C.3     1  LIG111     -0.0432
     13 H           2.4693   16.3403   -5.4356 H       1  LIG111      0.0263
     14 C          -4.0249    4.8650   -2.8343 C.3     1  LIG111      0.0720
     15 C          -2.9343    5.9448   -3.1128 C.3     1  LIG111      0.0031
     16 H          -0.4393    1.6842   -6.5592 H       1  LIG111      0.0655
     17 H           2.7278   17.2093   -7.7738 H       1  LIG111      0.0230
     18 C          -1.8533    5.8444   -2.0476 C.ar    1  LIG111     -0.0128
     19 C          -1.5303    4.6724   -1.3642 C.ar    1  LIG111      0.0622
     20 C          -2.2287    3.3288   -1.5421 C.3     1  LIG111      0.1523
     21 H           2.5505   15.5537   -8.4259 H       1  LIG111      0.0230
     22 C          -3.4137    3.4638   -2.5598 C.3     1  LIG111      0.0677
     23 C          -4.5125    2.4100   -2.2654 C.3     1  LIG111     -0.0518
     24 H           3.9745   15.9754   -7.4263 H       1  LIG111      0.0230
     25 H          -4.9066    3.7692   -6.0862 H       1  LIG111      0.0298
     26 C          -5.5963    2.3973   -3.3745 C.3     1  LIG111     -0.0891
     27 H          -3.8562    5.1701   -5.8752 H       1  LIG111      0.0298
     28 H          -5.4324    5.6928   -4.2305 H       1  LIG111      0.0126
     29 N          -6.1014    3.7674   -3.6559 N.4     1  LIG111      0.3839
     30 C          -7.2921    3.7401   -4.5558 C.3     1  LIG111     -0.0872
     31 H          -3.3748    6.9531   -3.1177 H       1  LIG111      0.0341
     32 H          -2.4122    5.7944   -4.0670 H       1  LIG111      0.0341
     33 C          -7.8926    5.1513   -4.7940 C.3     1  LIG111     -0.0559
     34 H          -2.5624    3.0169   -0.5407 H       1  LIG111      0.0809
     35 C          -8.8948    5.2526   -5.9655 C.3     1  LIG111     -0.0517
     36 H          -4.9842    2.6583   -1.3009 H       1  LIG111      0.0258
     37 H          -4.0640    1.4066   -2.1746 H       1  LIG111      0.0258
     38 C          -7.4907    5.8814   -6.0950 C.3     1  LIG111     -0.0517
     39 H          -6.4130    1.7364   -3.0355 H       1  LIG111      0.0059
     40 H          -5.1819    1.9475   -4.2905 H       1  LIG111      0.0059
     41 O          -1.2660    2.3771   -2.0804 O.3     1  LIG111     -0.4778
     42 N          -0.5112    4.9091   -0.5131 N.ar    1  LIG111     -0.3548
     43 H          -6.4935    4.1439   -2.7151 H       1  LIG111     -0.0813
     44 C          -0.1834    6.2111   -0.6135 C.ar    1  LIG111      0.0470
     45 C           0.8046    6.9087    0.0798 C.ar    1  LIG111     -0.0375
     46 H          -8.1047    3.1567   -4.0898 H       1  LIG111      0.0062
     47 C           0.9384    8.2750   -0.1977 C.ar    1  LIG111     -0.0560
     48 H          -7.0645    3.2425   -5.5099 H       1  LIG111      0.0062
     49 C           0.1060    8.9166   -1.1306 C.ar    1  LIG111     -0.0352
     50 C          -0.8631    8.1909   -1.8380 C.ar    1  LIG111     -0.0486
     51 H          -8.1471    5.7857   -3.9296 H       1  LIG111      0.0283
     52 C          -0.9973    6.8324   -1.5530 C.ar    1  LIG111      0.0036
     53 H          -9.7304    5.9621   -5.8596 H       1  LIG111      0.0267
     54 H          -9.0803    4.3532   -6.5731 H       1  LIG111      0.0267
     55 H          -7.4381    6.9803   -6.0490 H       1  LIG111      0.0267
     56 H          -6.7965    5.3803   -6.7862 H       1  LIG111      0.0267
     57 H          -0.0676    4.2168    0.1084 H       1  LIG111      0.1657
     58 H           1.4407    6.4099    0.8034 H       1  LIG111      0.0638
     59 C           0.2434   10.4241   -1.3900 C.3     1  LIG111      0.0752
     60 C           1.0236   10.6980   -2.6550 C.2     1  LIG111      0.2825
     61 N           1.0328   11.9237   -3.1232 N.pl3   1  LIG111     -0.2376
     62 N           1.6283    9.7032   -3.1764 N.2     1  LIG111     -0.1036
     63 O          -4.7538    5.2304   -1.6481 O.3     1  LIG111     -0.3888
     64 O           0.5089    1.2568   -4.1177 O.3     1  LIG111     -0.5033
     65 H           1.7037    8.8411    0.3232 H       1  LIG111      0.0621
     66 H          -1.4913    8.6654   -2.5840 H       1  LIG111      0.0627
     67 H           0.7511   10.9191   -0.5480 H       1  LIG111      0.0435
     68 C           1.7519   12.3059   -4.3394 C.3     1  LIG111      0.0779
     69 C           1.5613   13.8118   -4.6697 C.3     1  LIG111     -0.0169
     70 C           2.3302   14.2221   -5.9555 C.3     1  LIG111     -0.0499
     71 H          -0.7670   10.8544   -1.4736 H       1  LIG111      0.0435
     72 H           0.5095   12.6530   -2.6120 H       1  LIG111      0.2910
     73 H           2.1803    9.7710   -4.0155 H       1  LIG111      0.3629
     74 H          -5.1921    6.0716   -1.7213 H       1  LIG111      0.2101
     75 H           0.6661    1.2125   -3.1808 H       1  LIG111      0.2923
     76 H           1.3762   11.7129   -5.1894 H       1  LIG111      0.0724
     77 H           2.8277   12.1080   -4.2033 H       1  LIG111      0.0724
     78 H           1.9231   14.4145   -3.8203 H       1  LIG111      0.0301
     79 H           0.4860   14.0145   -4.8055 H       1  LIG111      0.0301
     80 H           1.9760   13.6132   -6.8035 H       1  LIG111      0.0266
     81 H           3.4060   14.0265   -5.8148 H       1  LIG111      0.0266
@<TRIPOS>BOND
     1    21     4    1
     2    17     4    1
     3     4    24    1
     4     4     2    1
     5    10     1    1
     6    80    70    1
     7    56    38    1
     8    54    35    1
     9    16     3    1
    10    11     2    1
    11     2    70    1
    12     2    13    1
    13     1     3   ar
    14     1     8   ar
    15    38    55    1
    16    38    35    1
    17    38    33    1
    18    25     9    1
    19    35    53    1
    20    35    33    1
    21    70    81    1
    22    70    69    1
    23    27     9    1
    24     3     5   ar
    25    48    30    1
    26     9     8    1
    27     9    12    1
    28    76    68    1
    29     8     7   ar
    30    79    69    1
    31    33    30    1
    32    33    51    1
    33    69    68    1
    34    69    78    1
    35    30    46    1
    36    30    29    1
    37     5    64    1
    38     5     6   ar
    39    68    77    1
    40    68    61    1
    41    40    26    1
    42    28    12    1
    43    64    75    1
    44    32    15    1
    45    12    29    1
    46    12    14    1
    47    73    62    1
    48     7     6   ar
    49     7    22    1
    50    29    26    1
    51    29    43    1
    52     6    41    1
    53    26    39    1
    54    26    23    1
    55    62    60    2
    56    61    60    1
    57    61    72    1
    58    31    15    1
    59    15    14    1
    60    15    18    1
    61    14    22    1
    62    14    63    1
    63    60    59    1
    64    66    50    1
    65    22    23    1
    66    22    20    1
    67    23    37    1
    68    23    36    1
    69    41    20    1
    70    18    52   ar
    71    18    19   ar
    72    50    52   ar
    73    50    49   ar
    74    74    63    1
    75    52    44   ar
    76    20    19    1
    77    20    34    1
    78    71    59    1
    79    59    49    1
    80    59    67    1
    81    19    42   ar
    82    49    47   ar
    83    44    42   ar
    84    44    45   ar
    85    42    57    1
    86    47    45   ar
    87    47    65    1
    88    45    58    1
