@<TRIPOS>MOLECULE
MOLECULE_20
 72 79 0 0 0
SMALL
GASTEIGER

@<TRIPOS>ATOM
      1 C          -2.2157    2.8233   -6.1154 C.ar    1  LIG111     -0.0547
      2 H          -2.4820    2.9572   -7.1587 H       1  LIG111      0.0622
      3 C          -1.0573    2.1061   -5.7732 C.ar    1  LIG111     -0.0162
      4 H          -0.4409    1.6825   -6.5593 H       1  LIG111      0.0655
      5 C          -0.6741    1.9270   -4.4359 C.ar    1  LIG111      0.1588
      6 C          -1.5077    2.4514   -3.4456 C.ar    1  LIG111      0.1668
      7 C          -2.6698    3.0980   -3.8067 C.ar    1  LIG111      0.0137
      8 C          -3.0293    3.3754   -5.1185 C.ar    1  LIG111     -0.0411
      9 C          -4.2475    4.2735   -5.3694 C.3     1  LIG111     -0.0368
     10 H          -4.9063    3.7688   -6.0866 H       1  LIG111      0.0298
     11 H          -3.8577    5.1708   -5.8758 H       1  LIG111      0.0298
     12 C          -4.9981    4.6941   -4.0525 C.3     1  LIG111     -0.0432
     13 H          -5.4349    5.6912   -4.2308 H       1  LIG111      0.0126
     14 C          -4.0255    4.8650   -2.8349 C.3     1  LIG111      0.0720
     15 C          -2.9355    5.9453   -3.1145 C.3     1  LIG111      0.0031
     16 H          -3.3765    6.9534   -3.1162 H       1  LIG111      0.0341
     17 H          -2.4154    5.7971   -4.0701 H       1  LIG111      0.0341
     18 C          -1.8516    5.8447   -2.0523 C.ar    1  LIG111     -0.0128
     19 C          -1.5332    4.6754   -1.3621 C.ar    1  LIG111      0.0622
     20 C          -2.2289    3.3304   -1.5412 C.3     1  LIG111      0.1523
     21 H          -2.5625    3.0169   -0.5403 H       1  LIG111      0.0809
     22 C          -3.4132    3.4644   -2.5598 C.3     1  LIG111      0.0677
     23 C          -4.5106    2.4089   -2.2663 C.3     1  LIG111     -0.0518
     24 H          -4.9832    2.6559   -1.3019 H       1  LIG111      0.0258
     25 H          -4.0608    1.4060   -2.1761 H       1  LIG111      0.0258
     26 C          -5.5936    2.3951   -3.3761 C.3     1  LIG111     -0.0891
     27 H          -6.4092    1.7323   -3.0381 H       1  LIG111      0.0059
     28 H          -5.1784    1.9470   -4.2925 H       1  LIG111      0.0059
     29 N          -6.1007    3.7648   -3.6559 N.4     1  LIG111      0.3839
     30 C          -7.2926    3.7372   -4.5543 C.3     1  LIG111     -0.0872
     31 H          -8.1020    3.1476   -4.0906 H       1  LIG111      0.0062
     32 H          -7.0644    3.2465   -5.5116 H       1  LIG111      0.0062
     33 C          -7.9000    5.1471   -4.7825 C.3     1  LIG111     -0.0559
     34 H          -8.1573    5.7741   -3.9135 H       1  LIG111      0.0283
     35 C          -8.9051    5.2502   -5.9514 C.3     1  LIG111     -0.0517
     36 H          -9.7445    5.9542   -5.8392 H       1  LIG111      0.0267
     37 H          -9.0863    4.3545   -6.5656 H       1  LIG111      0.0267
     38 C          -7.5048    5.8878   -6.0795 C.3     1  LIG111     -0.0517
     39 H          -7.4568    6.9864   -6.0248 H       1  LIG111      0.0267
     40 H          -6.8064    5.3947   -6.7723 H       1  LIG111      0.0267
     41 O          -1.2653    2.3795   -2.0801 O.3     1  LIG111     -0.4778
     42 N          -0.5200    4.9160   -0.5049 N.ar    1  LIG111     -0.3548
     43 H          -0.0835    4.2275    0.1257 H       1  LIG111      0.1657
     44 C          -0.1847    6.2153   -0.6160 C.ar    1  LIG111      0.0470
     45 C           0.8020    6.9149    0.0770 C.ar    1  LIG111     -0.0375
     46 H           1.4236    6.4231    0.8177 H       1  LIG111      0.0638
     47 C           0.9541    8.2741   -0.2241 C.ar    1  LIG111     -0.0565
     48 H           1.7152    8.8430    0.2999 H       1  LIG111      0.0621
     49 C           0.1469    8.9059   -1.1854 C.ar    1  LIG111     -0.0431
     50 C          -0.8380    8.1833   -1.8745 C.ar    1  LIG111     -0.0490
     51 H          -1.4648    8.6524   -2.6248 H       1  LIG111      0.0627
     52 C          -0.9881    6.8312   -1.5680 C.ar    1  LIG111      0.0036
     53 C           0.3435   10.3975   -1.4910 C.3     1  LIG111      0.0084
     54 H           0.6862   10.9173   -0.5848 H       1  LIG111      0.0350
     55 H          -0.6164   10.8534   -1.7836 H       1  LIG111      0.0350
     56 C           1.3678   10.5460   -2.6454 C.3     1  LIG111      0.0818
     57 H           1.5255   11.5980   -2.9268 H       1  LIG111      0.0727
     58 H           0.9241   10.0620   -3.5328 H       1  LIG111      0.0727
     59 N           2.6234    9.8622   -2.3235 N.pl3   1  LIG111     -0.2378
     60 H           2.8090    8.9654   -2.8030 H       1  LIG111      0.2910
     61 C           3.5073   10.3145   -1.4843 C.2     1  LIG111      0.2750
     62 N           4.5651    9.6529   -1.2468 N.2     1  LIG111     -0.1042
     63 H           5.2474    9.9896   -0.5856 H       1  LIG111      0.3629
     64 C           3.3655   11.6004   -0.7233 C.3     1  LIG111      0.0384
     65 H           2.6317   12.3081   -1.1260 H       1  LIG111      0.0351
     66 H           4.3286   12.1330   -0.7027 H       1  LIG111      0.0351
     67 O          -4.7547    5.2300   -1.6487 O.3     1  LIG111     -0.3888
     68 H          -5.1947    6.0702   -1.7227 H       1  LIG111      0.2101
     69 O           0.5022    1.2458   -4.1178 O.3     1  LIG111     -0.5033
     70 H           0.6567    1.1960   -3.1806 H       1  LIG111      0.2923
     71 H          -6.4925    4.1394   -2.7142 H       1  LIG111     -0.0813
     72 H           3.0817   11.3618    0.3126 H       1  LIG111      0.0351
@<TRIPOS>BOND
     1     2     1    1
     2    40    38    1
     3    37    35    1
     4     4     3    1
     5     1     3   ar
     6     1     8   ar
     7    10     9    1
     8    38    39    1
     9    38    35    1
    10    38    33    1
    11    35    36    1
    12    35    33    1
    13    11     9    1
    14     3     5   ar
    15    32    30    1
    16     9     8    1
    17     9    12    1
    18     8     7   ar
    19    33    30    1
    20    33    34    1
    21    30    31    1
    22    30    29    1
    23     5    69    1
    24     5     6   ar
    25    28    26    1
    26    13    12    1
    27    69    70    1
    28    17    15    1
    29    12    29    1
    30    12    14    1
    31     7     6   ar
    32     7    22    1
    33    29    26    1
    34    29    71    1
    35    58    56    1
    36     6    41    1
    37    26    27    1
    38    26    23    1
    39    16    15    1
    40    15    14    1
    41    15    18    1
    42    57    56    1
    43    14    22    1
    44    14    67    1
    45    60    59    1
    46    56    59    1
    47    56    53    1
    48    51    50    1
    49    22    23    1
    50    22    20    1
    51    59    61    1
    52    23    25    1
    53    23    24    1
    54    41    20    1
    55    18    52   ar
    56    18    19   ar
    57    50    52   ar
    58    50    49   ar
    59    55    53    1
    60    68    67    1
    61    52    44   ar
    62    20    19    1
    63    20    21    1
    64    53    49    1
    65    53    54    1
    66    61    62    2
    67    61    64    1
    68    19    42   ar
    69    62    63    1
    70    49    47   ar
    71    65    64    1
    72    64    66    1
    73    64    72    1
    74    44    42   ar
    75    44    45   ar
    76    42    43    1
    77    47    45   ar
    78    47    48    1
    79    45    46    1
