@<TRIPOS>MOLECULE
CCR5_30
 68 71 0 0 0
SMALL
GASTEIGER

@<TRIPOS>ATOM
      1 C1         -3.9938    1.4316   -1.5028 C.3     1  BENZYL1111    0.0140
      2 C2         -4.4330    2.6757   -0.6993 C.ar    1  BENZYL1111   -0.0398
      3 C3         -5.7790    3.0574   -0.7774 C.ar    1  BENZYL1111   -0.0580
      4 C4         -6.2672    4.1395   -0.0398 C.ar    1  BENZYL1111   -0.0615
      5 C5         -5.4036    4.8725    0.7767 C.ar    1  BENZYL1111   -0.0617
      6 C6         -4.0521    4.5251    0.8365 C.ar    1  BENZYL1111   -0.0615
      7 C7         -3.5681    3.4440    0.0934 C.ar    1  BENZYL1111   -0.0580
      8 C          -4.9741    0.2598   -1.3107 C.ar    2  PHENYL2222   -0.0398
      9 C          -5.5973    0.0360   -0.0765 C.ar    2  PHENYL2222   -0.0580
     10 C          -6.4908   -1.0268    0.0846 C.ar    2  PHENYL2222   -0.0615
     11 C          -6.7666   -1.8785   -0.9881 C.ar    2  PHENYL2222   -0.0617
     12 C          -6.1446   -1.6651   -2.2209 C.ar    2  PHENYL2222   -0.0615
     13 C          -5.2512   -0.6017   -2.3790 C.ar    2  PHENYL2222   -0.0580
     14 C14        -2.5494    0.9020   -1.2616 C.3     1  BENZYL1111   -0.0017
     15 C15        -2.3491    0.2824    0.1506 C.3     1  BENZYL1111   -0.0310
     16 N16        -0.9079    0.1800    0.5057 N.4     3  CYCLOHEXYL3333    0.2353
     17 C2         -0.1506   -0.8407   -0.2619 C.3     3  CYCLOHEXYL3333   -0.0302
     18 C3          1.3703   -0.7437    0.0220 C.3     3  CYCLOHEXYL3333    0.0063
     19 C4          1.6591   -0.8742    1.5385 C.3     3  CYCLOHEXYL3333    0.0353
     20 C5          0.8491    0.2294    2.2679 C.3     3  CYCLOHEXYL3333    0.0063
     21 C6         -0.6633    0.0800    1.9670 C.3     3  CYCLOHEXYL3333   -0.0302
     22 N22         3.1192   -0.8587    1.7389 N.am    3  CYCLOHEXYL3333   -0.3008
     23 C23         3.8563    0.3632    2.0900 C.3     3  CYCLOHEXYL3333    0.0035
     24 O1          7.6017    1.7358   -2.1352 O.3     5  OH5555     -0.5068
     25 C25         3.7962   -2.0079    1.4475 C.2     3  CYCLOHEXYL3333    0.2199
     26 O26         3.2020   -3.0306    1.1448 O.2     3  CYCLOHEXYL3333   -0.2752
     27 C27         5.3041   -2.1116    1.4595 C.3     3  CYCLOHEXYL3333    0.0493
     28 C           5.9431   -1.0918    0.5062 C.ar    4  PHENYL4444   -0.0384
     29 C           7.0512   -0.3331    0.9002 C.ar    4  PHENYL4444   -0.0547
     30 C           7.6084    0.6105    0.0316 C.ar    4  PHENYL4444   -0.0199
     31 C           7.0668    0.7987   -1.2461 C.ar    4  PHENYL4444    0.1169
     32 C           5.9676    0.0333   -1.6426 C.ar    4  PHENYL4444   -0.0199
     33 C           5.4121   -0.9118   -0.7757 C.ar    4  PHENYL4444   -0.0547
     34 H          -4.0021    1.8027   -2.5064 H       1  BENZYL1111    0.0399
     35 H          -6.4208    2.5304   -1.3901 H       1  BENZYL1111    0.0620
     36 H          -7.2650    4.3965   -0.0986 H       1  BENZYL1111    0.0618
     37 H          -5.7614    5.6653    1.3321 H       1  BENZYL1111    0.0618
     38 H          -3.4078    5.0688    1.4318 H       1  BENZYL1111    0.0618
     39 H          -2.5638    3.2090    0.1287 H       1  BENZYL1111    0.0620
     40 H          -5.3953    0.6605    0.7199 H       2  PHENYL2222    0.0620
     41 H          -6.9473   -1.1826    0.9969 H       2  PHENYL2222    0.0618
     42 H          -7.4274   -2.6624   -0.8703 H       2  PHENYL2222    0.0618
     43 H          -6.3449   -2.2929   -3.0151 H       2  PHENYL2222    0.0618
     44 H          -4.7920   -0.4504   -3.2908 H       2  PHENYL2222    0.0620
     45 H          -1.8471    1.6959   -1.4079 H       1  BENZYL1111    0.0326
     46 H          -2.3858    0.1167   -1.9697 H       1  BENZYL1111    0.0326
     47 H          -2.8034   -0.6855    0.1910 H       1  BENZYL1111    0.0815
     48 H          -2.8169    0.9302    0.8622 H       1  BENZYL1111    0.0815
     49 H          -0.5238    1.0765    0.2072 H       3  CYCLOHEXYL3333    0.2033
     50 H          -0.3348   -0.7208   -1.3091 H       3  CYCLOHEXYL3333    0.0815
     51 H          -0.4858   -1.8076    0.0505 H       3  CYCLOHEXYL3333    0.0815
     52 H           1.8927   -1.5062   -0.5171 H       3  CYCLOHEXYL3333    0.0335
     53 H           1.7126    0.2162   -0.3040 H       3  CYCLOHEXYL3333    0.0335
     54 H           1.3352   -1.7999    1.9664 H       3  CYCLOHEXYL3333    0.0504
     55 H           1.0210    0.1749    3.3226 H       3  CYCLOHEXYL3333    0.0335
     56 H           1.1751    1.1839    1.9109 H       3  CYCLOHEXYL3333    0.0335
     57 H          -1.0215   -0.8579    2.3370 H       3  CYCLOHEXYL3333    0.0815
     58 H          -1.1915    0.8698    2.4590 H       3  CYCLOHEXYL3333    0.0815
     59 H           3.1633    1.1550    2.2843 H       3  CYCLOHEXYL3333    0.0429
     60 H           4.5187    0.6374    1.2957 H       3  CYCLOHEXYL3333    0.0429
     61 H           4.4390    0.1821    2.9689 H       3  CYCLOHEXYL3333    0.0429
     62 H           7.2228    1.8446   -2.9852 H       5  OH5555      0.2921
     63 H           5.6036   -3.1022    1.1877 H       3  CYCLOHEXYL3333    0.0407
     64 H           5.6427   -1.8949    2.4511 H       3  CYCLOHEXYL3333    0.0407
     65 H           7.4597   -0.4709    1.8378 H       4  PHENYL4444    0.0622
     66 H           8.4214    1.1701    0.3331 H       4  PHENYL4444    0.0654
     67 H           5.5628    0.1667   -2.5825 H       4  PHENYL4444    0.0654
     68 H           4.6067   -1.4794   -1.0825 H       4  PHENYL4444    0.0622
@<TRIPOS>BOND
     1     1     2    1
     2     2     3   ar
     3     2     7   ar
     4     7     6   ar
     5     6     5   ar
     6     5     4   ar
     7     4     3   ar
     8     8     9   ar
     9     8    13   ar
    10    13    12   ar
    11    12    11   ar
    12    11    10   ar
    13    10     9   ar
    14     1     8    1
    15     1    14    1
    16    14    15    1
    17    16    17    1
    18    16    21    1
    19    21    20    1
    20    20    19    1
    21    19    18    1
    22    18    17    1
    23    15    16    1
    24    19    22    1
    25    22    23    1
    26    22    25   am
    27    25    26    2
    28    25    27    1
    29    28    29   ar
    30    28    33   ar
    31    33    32   ar
    32    32    31   ar
    33    31    30   ar
    34    30    29   ar
    35    27    28    1
    36    31    24    1
    37     1    34    1
    38     3    35    1
    39     4    36    1
    40     5    37    1
    41     6    38    1
    42     7    39    1
    43     9    40    1
    44    10    41    1
    45    11    42    1
    46    12    43    1
    47    13    44    1
    48    14    45    1
    49    14    46    1
    50    15    47    1
    51    15    48    1
    52    16    49    1
    53    17    50    1
    54    17    51    1
    55    18    52    1
    56    18    53    1
    57    19    54    1
    58    20    55    1
    59    20    56    1
    60    21    57    1
    61    21    58    1
    62    23    59    1
    63    23    60    1
    64    23    61    1
    65    24    62    1
    66    27    63    1
    67    27    64    1
    68    29    65    1
    69    30    66    1
    70    32    67    1
    71    33    68    1
