@<TRIPOS>MOLECULE
CCR5_22
 70 73 0 0 0
SMALL
GASTEIGER

@<TRIPOS>ATOM
      1 C1         -3.9948    1.4261   -1.5041 C.3     1  BENZYL1111    0.0140
      2 C2         -4.4286    2.6752   -0.7057 C.ar    1  BENZYL1111   -0.0398
      3 C3         -5.7707    3.0678   -0.7947 C.ar    1  BENZYL1111   -0.0580
      4 C4         -6.2548    4.1571   -0.0650 C.ar    1  BENZYL1111   -0.0615
      5 C5         -5.3910    4.8852    0.7557 C.ar    1  BENZYL1111   -0.0617
      6 C6         -4.0434    4.5254    0.8279 C.ar    1  BENZYL1111   -0.0615
      7 C7         -3.5632    3.4375    0.0924 C.ar    1  BENZYL1111   -0.0580
      8 C          -4.9777    0.2580   -1.3033 C.ar    2  PHENYL2222   -0.0398
      9 C          -5.6044    0.0467   -0.0687 C.ar    2  PHENYL2222   -0.0580
     10 C          -6.4993   -1.0137    0.1003 C.ar    2  PHENYL2222   -0.0615
     11 C          -6.7729   -1.8755   -0.9648 C.ar    2  PHENYL2222   -0.0617
     12 C          -6.1478   -1.6742   -2.1982 C.ar    2  PHENYL2222   -0.0615
     13 C          -5.2533   -0.6130   -2.3642 C.ar    2  PHENYL2222   -0.0580
     14 C14        -2.5509    0.8943   -1.2647 C.3     1  BENZYL1111   -0.0017
     15 C15        -2.3518    0.2702    0.1457 C.3     1  BENZYL1111   -0.0310
     16 N16        -0.9128    0.1715    0.5107 N.4     3  CYCLOHEXYL3333    0.2353
     17 C2         -0.1331   -0.8084   -0.2868 C.3     3  CYCLOHEXYL3333   -0.0302
     18 C3          1.3827   -0.7030    0.0205 C.3     3  CYCLOHEXYL3333    0.0063
     19 C4          1.6557   -0.8885    1.5343 C.3     3  CYCLOHEXYL3333    0.0353
     20 C5          0.8204    0.1734    2.2963 C.3     3  CYCLOHEXYL3333    0.0063
     21 C6         -0.6856    0.0146    1.9699 C.3     3  CYCLOHEXYL3333   -0.0302
     22 N22         3.1131   -0.8564    1.7524 N.am    3  CYCLOHEXYL3333   -0.3008
     23 C23         3.8229    0.3659    2.1553 C.3     3  CYCLOHEXYL3333    0.0035
     24 C24         7.5349    1.9622   -2.2226 C.3     4  PHENYL4444    0.4174
     25 C25         3.8121   -1.9830    1.4269 C.2     3  CYCLOHEXYL3333    0.2199
     26 O26         3.2399   -3.0030    1.0781 O.2     3  CYCLOHEXYL3333   -0.2752
     27 C27         5.3204   -2.0640    1.4475 C.3     3  CYCLOHEXYL3333    0.0493
     28 C           5.9251   -1.0210    0.4978 C.ar    4  PHENYL4444   -0.0386
     29 C           6.9885   -0.2054    0.9011 C.ar    4  PHENYL4444   -0.0576
     30 C           7.5057    0.7619    0.0341 C.ar    4  PHENYL4444   -0.0499
     31 C           6.9777    0.9133   -1.2530 C.ar    4  PHENYL4444    0.0548
     32 C           5.9222    0.0906   -1.6596 C.ar    4  PHENYL4444   -0.0499
     33 C           5.4049   -0.8763   -0.7931 C.ar    4  PHENYL4444   -0.0576
     34 F34         6.6873    3.0245   -2.2553 F       4  PHENYL4444   -0.1659
     35 F35         7.6296    1.4305   -3.4711 F       4  PHENYL4444   -0.1659
     36 F36         8.7676    2.3886   -1.8356 F       4  PHENYL4444   -0.1659
     37 H          -4.0049    1.7919   -2.5096 H       1  BENZYL1111    0.0399
     38 H          -6.4127    2.5437   -1.4096 H       1  BENZYL1111    0.0620
     39 H          -7.2496    4.4230   -0.1327 H       1  BENZYL1111    0.0618
     40 H          -5.7458    5.6835    1.3050 H       1  BENZYL1111    0.0618
     41 H          -3.3991    5.0650    1.4269 H       1  BENZYL1111    0.0618
     42 H          -2.5616    3.1929    0.1373 H       1  BENZYL1111    0.0620
     43 H          -5.4040    0.6787    0.7222 H       2  PHENYL2222    0.0620
     44 H          -6.9584   -1.1602    1.0129 H       2  PHENYL2222    0.0618
     45 H          -7.4343   -2.6580   -0.8411 H       2  PHENYL2222    0.0618
     46 H          -6.3466   -2.3093   -2.9869 H       2  PHENYL2222    0.0618
     47 H          -4.7922   -0.4704   -3.2764 H       2  PHENYL2222    0.0620
     48 H          -1.8478    1.6880   -1.4084 H       1  BENZYL1111    0.0326
     49 H          -2.3877    0.1113   -1.9754 H       1  BENZYL1111    0.0326
     50 H          -2.8025   -0.6996    0.1805 H       1  BENZYL1111    0.0815
     51 H          -2.8240    0.9158    0.8565 H       1  BENZYL1111    0.0815
     52 H          -0.5362    1.0829    0.2500 H       3  CYCLOHEXYL3333    0.2033
     53 H          -0.3059   -0.6494   -1.3307 H       3  CYCLOHEXYL3333    0.0815
     54 H          -0.4595   -1.7912   -0.0175 H       3  CYCLOHEXYL3333    0.0815
     55 H           1.9218   -1.4370   -0.5412 H       3  CYCLOHEXYL3333    0.0335
     56 H           1.7155    0.2735   -0.2633 H       3  CYCLOHEXYL3333    0.0335
     57 H           1.3416   -1.8353    1.9215 H       3  CYCLOHEXYL3333    0.0504
     58 H           0.9799    0.0793    3.3502 H       3  CYCLOHEXYL3333    0.0335
     59 H           1.1367    1.1460    1.9818 H       3  CYCLOHEXYL3333    0.0335
     60 H          -1.0342   -0.9430    2.2961 H       3  CYCLOHEXYL3333    0.0815
     61 H          -1.2321    0.7753    2.4872 H       3  CYCLOHEXYL3333    0.0815
     62 H           3.1128    1.1369    2.3702 H       3  CYCLOHEXYL3333    0.0429
     63 H           4.4882    0.6810    1.3787 H       3  CYCLOHEXYL3333    0.0429
     64 H           4.3998    0.1643    3.0336 H       3  CYCLOHEXYL3333    0.0429
     65 H           5.6397   -3.0459    1.1667 H       3  CYCLOHEXYL3333    0.0407
     66 H           5.6602   -1.8592    2.4412 H       3  CYCLOHEXYL3333    0.0407
     67 H           7.3931   -0.3186    1.8437 H       4  PHENYL4444    0.0621
     68 H           8.2812    1.3676    0.3451 H       4  PHENYL4444    0.0623
     69 H           5.5230    0.1982   -2.6051 H       4  PHENYL4444    0.0623
     70 H           4.6347   -1.4872   -1.1072 H       4  PHENYL4444    0.0621
@<TRIPOS>BOND
     1     1     2    1
     2     2     3   ar
     3     2     7   ar
     4     7     6   ar
     5     6     5   ar
     6     5     4   ar
     7     4     3   ar
     8     8     9   ar
     9     8    13   ar
    10    13    12   ar
    11    12    11   ar
    12    11    10   ar
    13    10     9   ar
    14     1     8    1
    15     1    14    1
    16    14    15    1
    17    16    17    1
    18    16    21    1
    19    21    20    1
    20    20    19    1
    21    19    18    1
    22    18    17    1
    23    15    16    1
    24    19    22    1
    25    22    23    1
    26    31    24    1
    27    22    25   am
    28    25    26    2
    29    25    27    1
    30    28    29   ar
    31    33    28   ar
    32    32    33   ar
    33    32    31   ar
    34    31    30   ar
    35    30    29   ar
    36    27    28    1
    37    24    34    1
    38    24    35    1
    39    24    36    1
    40     1    37    1
    41     3    38    1
    42     4    39    1
    43     5    40    1
    44     6    41    1
    45     7    42    1
    46     9    43    1
    47    10    44    1
    48    11    45    1
    49    12    46    1
    50    13    47    1
    51    14    48    1
    52    14    49    1
    53    15    50    1
    54    15    51    1
    55    16    52    1
    56    17    53    1
    57    17    54    1
    58    18    55    1
    59    18    56    1
    60    19    57    1
    61    20    58    1
    62    20    59    1
    63    21    60    1
    64    21    61    1
    65    23    62    1
    66    23    63    1
    67    23    64    1
    68    27    65    1
    69    27    66    1
    70    29    67    1
    71    30    68    1
    72    32    69    1
    73    33    70    1
