@<TRIPOS>MOLECULE
CCR5_01
 64 67 0 0 0
SMALL
GASTEIGER

@<TRIPOS>ATOM
      1 C1         -4.0476    1.5225   -1.5011 C.3     1  BENZYL1111    0.0140
      2 C2         -4.5022    2.7220   -0.6411 C.ar    1  BENZYL1111   -0.0398
      3 C3         -5.8544    3.0840   -0.7050 C.ar    1  BENZYL1111   -0.0580
      4 C4         -6.3579    4.1363    0.0645 C.ar    1  BENZYL1111   -0.0615
      5 C5         -5.5050    4.8544    0.9053 C.ar    1  BENZYL1111   -0.0617
      6 C6         -4.1505    4.5185    0.9621 C.ar    1  BENZYL1111   -0.0615
      7 C7         -3.6510    3.4664    0.1882 C.ar    1  BENZYL1111   -0.0580
      8 C          -4.9642    0.3040   -1.2872 C.ar    2  PHENYL2222   -0.0398
      9 C          -5.5324    0.0403   -0.0344 C.ar    2  PHENYL2222   -0.0580
     10 C          -6.3620   -1.0695    0.1492 C.ar    2  PHENYL2222   -0.0615
     11 C          -6.6290   -1.9285   -0.9199 C.ar    2  PHENYL2222   -0.0617
     12 C          -6.0646   -1.6731   -2.1723 C.ar    2  PHENYL2222   -0.0615
     13 C          -5.2357   -0.5620   -2.3531 C.ar    2  PHENYL2222   -0.0580
     14 C14        -2.5676    1.0599   -1.3550 C.3     1  BENZYL1111   -0.0017
     15 C15        -2.2865    0.3315   -0.0098 C.3     1  BENZYL1111   -0.0310
     16 N16        -0.8400    0.2258    0.3250 N.4     3  CYCLOHEXYL3333    0.2353
     17 C2          0.0088   -0.4256   -0.7055 C.3     3  CYCLOHEXYL3333   -0.0302
     18 C3          1.5077   -0.3351   -0.3174 C.3     3  CYCLOHEXYL3333    0.0063
     19 C4          1.7431   -0.9912    1.0669 C.3     3  CYCLOHEXYL3333    0.0356
     20 C5          0.8536   -0.2766    2.1099 C.3     3  CYCLOHEXYL3333    0.0063
     21 C6         -0.6331   -0.3485    1.6811 C.3     3  CYCLOHEXYL3333   -0.0302
     22 N22         3.1439   -0.9714    1.5152 N.am    3  CYCLOHEXYL3333   -0.2972
     23 C23         4.0356    0.1564    1.2232 C.3     3  CYCLOHEXYL3333    0.0038
     24 F24         8.9558   -2.5404    3.9286 F       4  PHENYL4444   -0.2055
     25 C25         3.5820   -2.0128    2.2781 C.2     3  CYCLOHEXYL3333    0.2466
     26 O26         2.8198   -2.8774    2.6791 O.2     3  CYCLOHEXYL3333   -0.2700
     27 C           5.0286   -2.1810    2.6939 C.ar    4  PHENYL4444    0.0371
     28 C           5.3244   -2.4466    4.0352 C.ar    4  PHENYL4444   -0.0469
     29 C           6.6524   -2.5742    4.4533 C.ar    4  PHENYL4444   -0.0257
     30 C           7.6908   -2.4397    3.5287 C.ar    4  PHENYL4444    0.1234
     31 C           7.3996   -2.2009    2.1835 C.ar    4  PHENYL4444   -0.0257
     32 C           6.0704   -2.0930    1.7634 C.ar    4  PHENYL4444   -0.0469
     33 H          -4.1238    1.9144   -2.4938 H       1  BENZYL1111    0.0399
     34 H          -6.4894    2.5646   -1.3311 H       1  BENZYL1111    0.0620
     35 H          -7.3587    4.3824    0.0115 H       1  BENZYL1111    0.0618
     36 H          -5.8730    5.6280    1.4808 H       1  BENZYL1111    0.0618
     37 H          -3.5152    5.0494    1.5782 H       1  BENZYL1111    0.0618
     38 H          -2.6459    3.2355    0.2278 H       1  BENZYL1111    0.0620
     39 H          -5.3370    0.6703    0.7593 H       2  PHENYL2222    0.0620
     40 H          -6.7778   -1.2546    1.0754 H       2  PHENYL2222    0.0618
     41 H          -7.2408   -2.7486   -0.7850 H       2  PHENYL2222    0.0618
     42 H          -6.2598   -2.3051   -2.9644 H       2  PHENYL2222    0.0618
     43 H          -4.8205   -0.3787   -3.2799 H       2  PHENYL2222    0.0620
     44 H          -1.9163    1.9035   -1.4498 H       1  BENZYL1111    0.0326
     45 H          -2.3833    0.3529   -2.1368 H       1  BENZYL1111    0.0326
     46 H          -2.7195   -0.6466   -0.0359 H       1  BENZYL1111    0.0815
     47 H          -2.7329    0.9286    0.7577 H       1  BENZYL1111    0.0815
     48 H          -0.5059    1.1895    0.3336 H       3  CYCLOHEXYL3333    0.2033
     49 H          -0.1520    0.0350   -1.6578 H       3  CYCLOHEXYL3333    0.0815
     50 H          -0.2639   -1.4585   -0.7656 H       3  CYCLOHEXYL3333    0.0815
     51 H           2.1100   -0.8157   -1.0598 H       3  CYCLOHEXYL3333    0.0335
     52 H           1.7866    0.6964   -0.2609 H       3  CYCLOHEXYL3333    0.0335
     53 H           1.4844   -2.0247    0.9677 H       3  CYCLOHEXYL3333    0.0504
     54 H           0.9815   -0.7255    3.0727 H       3  CYCLOHEXYL3333    0.0335
     55 H           1.1467    0.7509    2.1671 H       3  CYCLOHEXYL3333    0.0335
     56 H          -0.9690   -1.3642    1.7013 H       3  CYCLOHEXYL3333    0.0815
     57 H          -1.2036    0.2332    2.3747 H       3  CYCLOHEXYL3333    0.0815
     58 H           3.5205    0.8710    0.6158 H       3  CYCLOHEXYL3333    0.0429
     59 H           4.9168   -0.1879    0.7234 H       3  CYCLOHEXYL3333    0.0429
     60 H           4.3276    0.6209    2.1418 H       3  CYCLOHEXYL3333    0.0429
     61 H           4.5586   -2.5488    4.7194 H       4  PHENYL4444    0.0626
     62 H           6.8654   -2.7676    5.4444 H       4  PHENYL4444    0.0646
     63 H           8.1661   -2.1041    1.4993 H       4  PHENYL4444    0.0646
     64 H           5.8568   -1.9480    0.7642 H       4  PHENYL4444    0.0626
@<TRIPOS>BOND
     1     1     2    1
     2     2     3   ar
     3     2     7   ar
     4     7     6   ar
     5     6     5   ar
     6     5     4   ar
     7     4     3   ar
     8     8     9   ar
     9     8    13   ar
    10    13    12   ar
    11    12    11   ar
    12    11    10   ar
    13    10     9   ar
    14     1     8    1
    15     1    14    1
    16    14    15    1
    17    16    17    1
    18    16    21    1
    19    21    20    1
    20    20    19    1
    21    19    18    1
    22    18    17    1
    23    15    16    1
    24    19    22    1
    25    22    23    1
    26    30    24    1
    27    22    25   am
    28    25    26    2
    29    25    27    1
    30    27    28   ar
    31    32    27   ar
    32    31    32   ar
    33    31    30   ar
    34    30    29   ar
    35    29    28   ar
    36     1    33    1
    37     3    34    1
    38     4    35    1
    39     5    36    1
    40     6    37    1
    41     7    38    1
    42     9    39    1
    43    10    40    1
    44    11    41    1
    45    12    42    1
    46    13    43    1
    47    14    44    1
    48    14    45    1
    49    15    46    1
    50    15    47    1
    51    16    48    1
    52    17    49    1
    53    17    50    1
    54    18    51    1
    55    18    52    1
    56    19    53    1
    57    20    54    1
    58    20    55    1
    59    21    56    1
    60    21    57    1
    61    23    58    1
    62    23    59    1
    63    23    60    1
    64    28    61    1
    65    29    62    1
    66    31    63    1
    67    32    64    1
