@<TRIPOS>MOLECULE
14
 71 74 0 0 0
SMALL
GASTEIGER

@<TRIPOS>ATOM
      1 C1         -3.9953    1.4389   -1.5041 C.3     1  BENZYL111    0.0140
      2 C2         -4.4445    2.6823   -0.7051 C.ar    1  BENZYL111   -0.0398
      3 C3         -5.7954    3.0478   -0.7766 C.ar    1  BENZYL111   -0.0580
      4 C4         -6.2919    4.1272   -0.0406 C.ar    1  BENZYL111   -0.0615
      5 C5         -5.4319    4.8743    0.7669 C.ar    1  BENZYL111   -0.0617
      6 C6         -4.0758    4.5440    0.8188 C.ar    1  BENZYL111   -0.0615
      7 C7         -3.5837    3.4655    0.0773 C.ar    1  BENZYL111   -0.0580
      8 C          -4.9663    0.2601   -1.3072 C.ar    2  PHENYL222   -0.0398
      9 C          -5.5826    0.0328   -0.0702 C.ar    2  PHENYL222   -0.0580
     10 C          -6.4686   -1.0356    0.0954 C.ar    2  PHENYL222   -0.0615
     11 C          -6.7435   -1.8898   -0.9756 C.ar    2  PHENYL222   -0.0617
     12 C          -6.1279   -1.6732   -2.2111 C.ar    2  PHENYL222   -0.0615
     13 C          -5.2421   -0.6041   -2.3736 C.ar    2  PHENYL222   -0.0580
     14 C14        -2.5465    0.9212   -1.2618 C.3     1  BENZYL111   -0.0017
     15 C15        -2.3387    0.3126    0.1541 C.3     1  BENZYL111   -0.0310
     16 N16        -0.8961    0.2074    0.5045 N.4     3  CYCLOHEXYL333    0.2353
     17 C2         -0.1450   -0.8149   -0.2673 C.3     3  CYCLOHEXYL333   -0.0302
     18 C3          1.3759   -0.7360    0.0216 C.3     3  CYCLOHEXYL333    0.0063
     19 C4          1.6589   -0.8816    1.5378 C.3     3  CYCLOHEXYL333    0.0353
     20 C5          0.8611    0.2275    2.2721 C.3     3  CYCLOHEXYL333    0.0063
     21 C6         -0.6524    0.0997    1.9656 C.3     3  CYCLOHEXYL333   -0.0302
     22 N22         3.1183   -0.8864    1.7444 N.am    3  CYCLOHEXYL333   -0.3008
     23 C23         3.8673    0.3216    2.1179 C.3     3  CYCLOHEXYL333    0.0035
     24 O24         8.8818    1.1397    0.5665 O.3     4  PHENYL444   -0.4951
     25 C25         3.7819   -2.0405    1.4418 C.2     3  CYCLOHEXYL333    0.2199
     26 O26         3.1755   -3.0504    1.1213 O.2     3  CYCLOHEXYL333   -0.2752
     27 C27         5.2879   -2.1680    1.4652 C.3     3  CYCLOHEXYL333    0.0494
     28 C           5.9680   -1.1378    0.5524 C.ar    4  PHENYL444   -0.0352
     29 C           7.1303   -0.4764    0.9653 C.ar    4  PHENYL444   -0.0163
     30 C           7.7293    0.4800    0.1418 C.ar    4  PHENYL444    0.1204
     31 C           7.1755    0.7750   -1.1060 C.ar    4  PHENYL444   -0.0199
     32 C           6.0218    0.1099   -1.5299 C.ar    4  PHENYL444   -0.0580
     33 C           5.4263   -0.8493   -0.7057 C.ar    4  PHENYL444   -0.0579
     34 C34         8.6192    2.3630    1.2712 C.3     4  PHENYL444    0.0788
     35 H          -4.0064    1.8066   -2.5089 H       1  BENZYL111    0.0399
     36 H          -6.4347    2.5107   -1.3832 H       1  BENZYL111    0.0620
     37 H          -7.2931    4.3718   -0.0939 H       1  BENZYL111    0.0618
     38 H          -5.7957    5.6649    1.3214 H       1  BENZYL111    0.0618
     39 H          -3.4342    5.0984    1.4070 H       1  BENZYL111    0.0618
     40 H          -2.5763    3.2435    0.1061 H       1  BENZYL111    0.0620
     41 H          -5.3810    0.6589    0.7251 H       2  PHENYL222    0.0620
     42 H          -6.9202   -1.1937    1.0098 H       2  PHENYL222    0.0618
     43 H          -7.3988   -2.6778   -0.8546 H       2  PHENYL222    0.0618
     44 H          -6.3273   -2.3028   -3.0041 H       2  PHENYL222    0.0618
     45 H          -4.7876   -0.4505   -3.2873 H       2  PHENYL222    0.0620
     46 H          -1.8502    1.7191   -1.4149 H       1  BENZYL111    0.0326
     47 H          -2.3789    0.1321   -1.9648 H       1  BENZYL111    0.0326
     48 H          -2.7963   -0.6533    0.2051 H       1  BENZYL111    0.0815
     49 H          -2.7992    0.9695    0.8622 H       1  BENZYL111    0.0815
     50 H          -0.5077    1.1028    0.2080 H       3  CYCLOHEXYL333    0.2033
     51 H          -0.3245   -0.6860   -1.3142 H       3  CYCLOHEXYL333    0.0815
     52 H          -0.4904   -1.7804    0.0385 H       3  CYCLOHEXYL333    0.0815
     53 H           1.8919   -1.4996   -0.5221 H       3  CYCLOHEXYL333    0.0335
     54 H           1.7291    0.2229   -0.2958 H       3  CYCLOHEXYL333    0.0335
     55 H           1.3224   -1.8068    1.9570 H       3  CYCLOHEXYL333    0.0504
     56 H           1.0290    0.1638    3.3269 H       3  CYCLOHEXYL333    0.0335
     57 H           1.2006    1.1801    1.9225 H       3  CYCLOHEXYL333    0.0335
     58 H          -1.0242   -0.8342    2.3324 H       3  CYCLOHEXYL333    0.0815
     59 H          -1.1691    0.8970    2.4578 H       3  CYCLOHEXYL333    0.0815
     60 H           3.1824    1.1189    2.3180 H       3  CYCLOHEXYL333    0.0429
     61 H           4.5390    0.5987    1.3324 H       3  CYCLOHEXYL333    0.0429
     62 H           4.4411    0.1214    2.9986 H       3  CYCLOHEXYL333    0.0429
     63 H           5.5726   -3.1567    1.1713 H       3  CYCLOHEXYL333    0.0407
     64 H           5.6130   -1.9772    2.4666 H       3  CYCLOHEXYL333    0.0407
     65 H           7.5472   -0.6965    1.8833 H       4  PHENYL444    0.0657
     66 H           7.6173    1.4826   -1.7136 H       4  PHENYL444    0.0654
     67 H           5.6097    0.3268   -2.4509 H       4  PHENYL444    0.0619
     68 H           4.5818   -1.3480   -1.0268 H       4  PHENYL444    0.0620
     69 H           9.5450    2.8118    1.5650 H       4  PHENYL444    0.0660
     70 H           8.0109    2.1722    2.1305 H       4  PHENYL444    0.0660
     71 H           8.0920    3.0344    0.6260 H       4  PHENYL444    0.0660
@<TRIPOS>BOND
     1     1     2    1
     2     2     3   ar
     3     2     7   ar
     4     7     6   ar
     5     6     5   ar
     6     5     4   ar
     7     4     3   ar
     8     8     9   ar
     9     8    13   ar
    10    13    12   ar
    11    12    11   ar
    12    11    10   ar
    13    10     9   ar
    14     1     8    1
    15     1    14    1
    16    14    15    1
    17    16    17    1
    18    16    21    1
    19    21    20    1
    20    20    19    1
    21    19    18    1
    22    18    17    1
    23    15    16    1
    24    19    22    1
    25    22    23    1
    26    30    24    1
    27    22    25   am
    28    25    26    2
    29    25    27    1
    30    28    29   ar
    31    33    28   ar
    32    32    33   ar
    33    31    32   ar
    34    31    30   ar
    35    30    29   ar
    36    27    28    1
    37    24    34    1
    38     1    35    1
    39     3    36    1
    40     4    37    1
    41     5    38    1
    42     6    39    1
    43     7    40    1
    44     9    41    1
    45    10    42    1
    46    11    43    1
    47    12    44    1
    48    13    45    1
    49    14    46    1
    50    14    47    1
    51    15    48    1
    52    15    49    1
    53    16    50    1
    54    17    51    1
    55    17    52    1
    56    18    53    1
    57    18    54    1
    58    19    55    1
    59    20    56    1
    60    20    57    1
    61    21    58    1
    62    21    59    1
    63    23    60    1
    64    23    61    1
    65    23    62    1
    66    27    63    1
    67    27    64    1
    68    29    65    1
    69    31    66    1
    70    32    67    1
    71    33    68    1
    72    34    69    1
    73    34    70    1
    74    34    71    1
