@<TRIPOS>MOLECULE
CCR5_48
 72 75 0 0 0
SMALL
GASTEIGER

@<TRIPOS>ATOM
      1 C1         -4.0394    1.4592   -1.4980 C.3     1  BENZYL1111    0.0140
      2 C2         -4.4323    2.6777   -0.6345 C.ar    1  BENZYL1111   -0.0398
      3 C3         -5.7615    3.1153   -0.7047 C.ar    1  BENZYL1111   -0.0580
      4 C4         -6.2087    4.1932    0.0641 C.ar    1  BENZYL1111   -0.0615
      5 C5         -5.3216    4.8596    0.9120 C.ar    1  BENZYL1111   -0.0617
      6 C6         -3.9890    4.4463    0.9770 C.ar    1  BENZYL1111   -0.0615
      7 C7         -3.5454    3.3696    0.2030 C.ar    1  BENZYL1111   -0.0580
      8 C          -5.0217    0.2896   -1.3070 C.ar    2  PHENYL2222   -0.0398
      9 C          -5.6235    0.0472   -0.0658 C.ar    2  PHENYL2222   -0.0580
     10 C          -6.5179   -1.0152    0.0932 C.ar    2  PHENYL2222   -0.0615
     11 C          -6.8152   -1.8482   -0.9884 C.ar    2  PHENYL2222   -0.0617
     12 C          -6.2148   -1.6159   -2.2285 C.ar    2  PHENYL2222   -0.0615
     13 C          -5.3214   -0.5522   -2.3848 C.ar    2  PHENYL2222   -0.0580
     14 C14        -2.5891    0.9159   -1.3417 C.3     1  BENZYL1111   -0.0017
     15 C15        -2.3462    0.1849    0.0100 C.3     1  BENZYL1111   -0.0310
     16 N16        -0.9035    0.0808    0.3575 N.4     3  CYCLOHEXYL3333    0.2353
     17 C2         -0.0597   -0.6467   -0.6247 C.3     3  CYCLOHEXYL3333   -0.0302
     18 C3          1.4391   -0.4521   -0.2815 C.3     3  CYCLOHEXYL3333    0.0064
     19 C4          1.7317   -0.9448    1.1587 C.3     3  CYCLOHEXYL3333    0.0371
     20 C5          0.8085   -0.2049    2.1575 C.3     3  CYCLOHEXYL3333    0.0064
     21 C6         -0.6764   -0.3867    1.7508 C.3     3  CYCLOHEXYL3333   -0.0302
     22 N22         3.1611   -0.8141    1.5015 N.am    3  CYCLOHEXYL3333   -0.2822
     23 C23         3.8283    0.5004    1.5113 C.3     3  CYCLOHEXYL3333    0.0136
     24 C24         4.2675    0.8583    2.9559 C.3     3  CYCLOHEXYL3333   -0.0492
     25 C25         3.8028   -1.9182    1.9934 C.2     3  CYCLOHEXYL3333    0.3067
     26 O26         3.1268   -2.7902    2.5158 O.2     3  CYCLOHEXYL3333   -0.2523
     27 N27         5.0901   -2.1554    1.9689 N.am    3  CYCLOHEXYL3333   -0.2693
     28 C           5.9782   -1.4511    1.2325 C.ar    4  PHENYL4444    0.0348
     29 C           7.0761   -0.8324    1.8371 C.ar    4  PHENYL4444   -0.0402
     30 C           7.9568   -0.0634    1.0705 C.ar    4  PHENYL4444   -0.0571
     31 C           7.7611    0.0702   -0.3092 C.ar    4  PHENYL4444   -0.0503
     32 C           6.6972   -0.6020   -0.9203 C.ar    4  PHENYL4444   -0.0571
     33 C           5.8123   -1.3653   -0.1538 C.ar    4  PHENYL4444   -0.0402
     34 C34         8.6916    0.9398   -1.1632 C.3     4  PHENYL4444   -0.0397
     35 H          -4.0888    1.8631   -2.4876 H       1  BENZYL1111    0.0399
     36 H          -6.4215    2.6334   -1.3349 H       1  BENZYL1111    0.0620
     37 H          -7.1934    4.4964    0.0053 H       1  BENZYL1111    0.0618
     38 H          -5.6484    5.6521    1.4867 H       1  BENZYL1111    0.0618
     39 H          -3.3286    4.9379    1.5993 H       1  BENZYL1111    0.0618
     40 H          -2.5556    3.0812    0.2485 H       1  BENZYL1111    0.0620
     41 H          -5.4050    0.6574    0.7373 H       2  PHENYL2222    0.0620
     42 H          -6.9592   -1.1845    1.0106 H       2  PHENYL2222    0.0618
     43 H          -7.4759   -2.6323   -0.8718 H       2  PHENYL2222    0.0618
     44 H          -6.4310   -2.2298   -3.0293 H       2  PHENYL2222    0.0618
     45 H          -4.8791   -0.3860   -3.3023 H       2  PHENYL2222    0.0620
     46 H          -1.8917    1.7209   -1.4443 H       1  BENZYL1111    0.0326
     47 H          -2.4468    0.1900   -2.1148 H       1  BENZYL1111    0.0326
     48 H          -2.7796   -0.7927   -0.0261 H       1  BENZYL1111    0.0815
     49 H          -2.8127    0.7714    0.7737 H       1  BENZYL1111    0.0815
     50 H          -0.5764    1.0454    0.3023 H       3  CYCLOHEXYL3333    0.2033
     51 H          -0.2601   -0.2951   -1.6152 H       3  CYCLOHEXYL3333    0.0815
     52 H          -0.2936   -1.6897   -0.5772 H       3  CYCLOHEXYL3333    0.0815
     53 H           2.0488   -0.9828   -0.9826 H       3  CYCLOHEXYL3333    0.0335
     54 H           1.6706    0.5909   -0.3397 H       3  CYCLOHEXYL3333    0.0335
     55 H           1.5146   -1.9907    1.2199 H       3  CYCLOHEXYL3333    0.0505
     56 H           0.9667   -0.5752    3.1488 H       3  CYCLOHEXYL3333    0.0335
     57 H           1.0454    0.8383    2.1364 H       3  CYCLOHEXYL3333    0.0335
     58 H          -0.9583   -1.4148    1.8428 H       3  CYCLOHEXYL3333    0.0815
     59 H          -1.2807    0.2037    2.4074 H       3  CYCLOHEXYL3333    0.0815
     60 H           3.1695    1.2518    1.1288 H       3  CYCLOHEXYL3333    0.0462
     61 H           4.6951    0.4550    0.8856 H       3  CYCLOHEXYL3333    0.0462
     62 H           3.4066    0.9061    3.5895 H       3  CYCLOHEXYL3333    0.0245
     63 H           4.7860    1.7942    2.9643 H       3  CYCLOHEXYL3333    0.0245
     64 H           4.9304    0.1013    3.3197 H       3  CYCLOHEXYL3333    0.0245
     65 H           5.4332   -2.8939    2.5222 H       3  CYCLOHEXYL3333    0.1564
     66 H           7.2368   -0.9434    2.8505 H       4  PHENYL4444    0.0636
     67 H           8.7550    0.4080    1.5239 H       4  PHENYL4444    0.0621
     68 H           6.5652   -0.5339   -1.9416 H       4  PHENYL4444    0.0621
     69 H           5.0350   -1.8666   -0.6114 H       4  PHENYL4444    0.0636
     70 H           8.3727    0.9083   -2.1841 H       4  PHENYL4444    0.0278
     71 H           9.7010    0.5949   -1.0797 H       4  PHENYL4444    0.0278
     72 H           8.6493    1.9498   -0.8124 H       4  PHENYL4444    0.0278
@<TRIPOS>BOND
     1     1     2    1
     2     2     3   ar
     3     2     7   ar
     4     7     6   ar
     5     6     5   ar
     6     5     4   ar
     7     4     3   ar
     8     8     9   ar
     9     8    13   ar
    10    13    12   ar
    11    12    11   ar
    12    11    10   ar
    13    10     9   ar
    14     1     8    1
    15     1    14    1
    16    14    15    1
    17    16    17    1
    18    16    21    1
    19    21    20    1
    20    20    19    1
    21    19    18    1
    22    18    17    1
    23    15    16    1
    24    19    22    1
    25    22    23    1
    26    23    24    1
    27    22    25   am
    28    25    26    2
    29    25    27   am
    30    28    29   ar
    31    28    33   ar
    32    33    32   ar
    33    32    31   ar
    34    31    30   ar
    35    30    29   ar
    36    27    28    1
    37    31    34    1
    38     1    35    1
    39     3    36    1
    40     4    37    1
    41     5    38    1
    42     6    39    1
    43     7    40    1
    44     9    41    1
    45    10    42    1
    46    11    43    1
    47    12    44    1
    48    13    45    1
    49    14    46    1
    50    14    47    1
    51    15    48    1
    52    15    49    1
    53    16    50    1
    54    17    51    1
    55    17    52    1
    56    18    53    1
    57    18    54    1
    58    19    55    1
    59    20    56    1
    60    20    57    1
    61    21    58    1
    62    21    59    1
    63    23    60    1
    64    23    61    1
    65    24    62    1
    66    24    63    1
    67    24    64    1
    68    27    65    1
    69    29    66    1
    70    30    67    1
    71    32    68    1
    72    33    69    1
    73    34    70    1
    74    34    71    1
    75    34    72    1
