@<TRIPOS>MOLECULE
CCR5_33
 71 74 0 0 0
SMALL
GASTEIGER

@<TRIPOS>ATOM
      1 C1         -4.0018    1.4117   -1.5048 C.3     1  BENZYL1111    0.0140
      2 C2         -4.4152    2.6744   -0.7173 C.ar    1  BENZYL1111   -0.0398
      3 C3         -5.7403    3.1105   -0.8487 C.ar    1  BENZYL1111   -0.0580
      4 C4         -6.2076    4.2238   -0.1450 C.ar    1  BENZYL1111   -0.0615
      5 C5         -5.3443    4.9290    0.6961 C.ar    1  BENZYL1111   -0.0617
      6 C6         -4.0147    4.5192    0.8183 C.ar    1  BENZYL1111   -0.0615
      7 C7         -3.5510    3.4065    0.1097 C.ar    1  BENZYL1111   -0.0580
      8 C          -4.9960    0.2582   -1.2775 C.ar    2  PHENYL2222   -0.0398
      9 C          -5.6333    0.0869   -0.0421 C.ar    2  PHENYL2222   -0.0580
     10 C          -6.5402   -0.9593    0.1494 C.ar    2  PHENYL2222   -0.0615
     11 C          -6.8145   -1.8478   -0.8934 C.ar    2  PHENYL2222   -0.0617
     12 C          -6.1777   -1.6876   -2.1267 C.ar    2  PHENYL2222   -0.0615
     13 C          -5.2716   -0.6399   -2.3155 C.ar    2  PHENYL2222   -0.0580
     14 C14        -2.5583    0.8741   -1.2778 C.3     1  BENZYL1111   -0.0017
     15 C15        -2.3623    0.2130    0.1165 C.3     1  BENZYL1111   -0.0310
     16 N16        -0.9334    0.1166    0.5194 N.4     3  CYCLOHEXYL3333    0.2353
     17 C2         -0.0589   -0.6541   -0.3998 C.3     3  CYCLOHEXYL3333   -0.0302
     18 C3          1.4289   -0.4937    0.0026 C.3     3  CYCLOHEXYL3333    0.0063
     19 C4          1.6601   -0.9324    1.4684 C.3     3  CYCLOHEXYL3333    0.0356
     20 C5          0.7024   -0.1315    2.3899 C.3     3  CYCLOHEXYL3333    0.0063
     21 C6         -0.7675   -0.3122    1.9324 C.3     3  CYCLOHEXYL3333   -0.0302
     22 N22         3.1043   -0.8149    1.7496 N.am    3  CYCLOHEXYL3333   -0.2980
     23 C23         3.7150    0.4403    2.2161 C.3     3  CYCLOHEXYL3333    0.0121
     24 C24         3.7972    0.5144    3.7634 C.3     3  CYCLOHEXYL3333   -0.0493
     25 C25         3.8869   -1.9007    1.4728 C.2     3  CYCLOHEXYL3333    0.2201
     26 O26         3.4017   -2.9397    1.0540 O.2     3  CYCLOHEXYL3333   -0.2752
     27 C27         5.3920   -1.9219    1.6228 C.3     3  CYCLOHEXYL3333    0.0493
     28 C           6.0770   -1.1429    0.4898 C.ar    4  PHENYL4444   -0.0385
     29 C           7.1846   -0.3289    0.7557 C.ar    4  PHENYL4444   -0.0569
     30 C           7.7744    0.4194   -0.2674 C.ar    4  PHENYL4444   -0.0441
     31 C           7.2665    0.3506   -1.5675 C.ar    4  PHENYL4444    0.0518
     32 C           6.1800   -0.4835   -1.8447 C.ar    4  PHENYL4444   -0.0441
     33 C           5.5947   -1.2348   -0.8213 C.ar    4  PHENYL4444   -0.0569
     34 C           7.8618    1.1371   -2.6181 C.1     5  CN5555      0.0992
     35 N           8.3400    1.7696   -3.4614 N.1     5  CN5555     -0.1909
     36 H          -4.0191    1.7604   -2.5163 H       1  BENZYL1111    0.0399
     37 H          -6.3821    2.6009   -1.4759 H       1  BENZYL1111    0.0620
     38 H          -7.1896    4.5244   -0.2468 H       1  BENZYL1111    0.0618
     39 H          -5.6864    5.7473    1.2237 H       1  BENZYL1111    0.0618
     40 H          -3.3714    5.0401    1.4346 H       1  BENZYL1111    0.0618
     41 H          -2.5630    3.1212    0.1962 H       1  BENZYL1111    0.0620
     42 H          -5.4317    0.7381    0.7327 H       2  PHENYL2222    0.0620
     43 H          -7.0077   -1.0756    1.0621 H       2  PHENYL2222    0.0618
     44 H          -7.4851   -2.6196   -0.7532 H       2  PHENYL2222    0.0618
     45 H          -6.3764   -2.3431   -2.8987 H       2  PHENYL2222    0.0618
     46 H          -4.8020   -0.5276   -3.2276 H       2  PHENYL2222    0.0620
     47 H          -1.8551    1.6714   -1.3991 H       1  BENZYL1111    0.0326
     48 H          -2.3932    0.1106   -2.0090 H       1  BENZYL1111    0.0326
     49 H          -2.8026   -0.7622    0.1171 H       1  BENZYL1111    0.0815
     50 H          -2.8466    0.8441    0.8321 H       1  BENZYL1111    0.0815
     51 H          -0.5978    1.0766    0.4407 H       3  CYCLOHEXYL3333    0.2033
     52 H          -0.2043   -0.3246   -1.4074 H       3  CYCLOHEXYL3333    0.0815
     53 H          -0.3204   -1.6893   -0.3300 H       3  CYCLOHEXYL3333    0.0815
     54 H           2.0489   -1.0687   -0.6531 H       3  CYCLOHEXYL3333    0.0335
     55 H           1.6878    0.5411   -0.0811 H       3  CYCLOHEXYL3333    0.0335
     56 H           1.4134   -1.9562    1.6581 H       3  CYCLOHEXYL3333    0.0504
     57 H           0.8137   -0.4535    3.4042 H       3  CYCLOHEXYL3333    0.0335
     58 H           0.9548    0.9062    2.3244 H       3  CYCLOHEXYL3333    0.0335
     59 H          -1.0629   -1.3347    2.0426 H       3  CYCLOHEXYL3333    0.0815
     60 H          -1.3919    0.3009    2.5481 H       3  CYCLOHEXYL3333    0.0815
     61 H           3.1581    1.2743    1.8429 H       3  CYCLOHEXYL3333    0.0462
     62 H           4.7162    0.4694    1.8397 H       3  CYCLOHEXYL3333    0.0462
     63 H           2.8100    0.4875    4.1752 H       3  CYCLOHEXYL3333    0.0245
     64 H           4.3003    1.4092    4.0652 H       3  CYCLOHEXYL3333    0.0245
     65 H           4.3528   -0.3248    4.1267 H       3  CYCLOHEXYL3333    0.0245
     66 H           5.7432   -2.9325    1.6349 H       3  CYCLOHEXYL3333    0.0407
     67 H           5.6398   -1.4468    2.5490 H       3  CYCLOHEXYL3333    0.0407
     68 H           7.5680   -0.2810    1.7127 H       4  PHENYL4444    0.0621
     69 H           8.5858    1.0233   -0.0623 H       4  PHENYL4444    0.0630
     70 H           5.8094   -0.5449   -2.8059 H       4  PHENYL4444    0.0630
     71 H           4.8023   -1.8610   -1.0336 H       4  PHENYL4444    0.0621
@<TRIPOS>BOND
     1     1     2    1
     2     2     3   ar
     3     2     7   ar
     4     7     6   ar
     5     6     5   ar
     6     5     4   ar
     7     4     3   ar
     8     8     9   ar
     9     8    13   ar
    10    13    12   ar
    11    12    11   ar
    12    11    10   ar
    13    10     9   ar
    14     1     8    1
    15     1    14    1
    16    14    15    1
    17    16    17    1
    18    16    21    1
    19    21    20    1
    20    20    19    1
    21    19    18    1
    22    18    17    1
    23    15    16    1
    24    19    22    1
    25    22    23    1
    26    23    24    1
    27    22    25   am
    28    25    26    2
    29    25    27    1
    30    28    29   ar
    31    28    33   ar
    32    33    32   ar
    33    32    31   ar
    34    31    30   ar
    35    30    29   ar
    36    27    28    1
    37    34    35    3
    38    31    34    1
    39     1    36    1
    40     3    37    1
    41     4    38    1
    42     5    39    1
    43     6    40    1
    44     7    41    1
    45     9    42    1
    46    10    43    1
    47    11    44    1
    48    12    45    1
    49    13    46    1
    50    14    47    1
    51    14    48    1
    52    15    49    1
    53    15    50    1
    54    16    51    1
    55    17    52    1
    56    17    53    1
    57    18    54    1
    58    18    55    1
    59    19    56    1
    60    20    57    1
    61    20    58    1
    62    21    59    1
    63    21    60    1
    64    23    61    1
    65    23    62    1
    66    24    63    1
    67    24    64    1
    68    24    65    1
    69    27    66    1
    70    27    67    1
    71    29    68    1
    72    30    69    1
    73    32    70    1
    74    33    71    1
