@<TRIPOS>MOLECULE
CCR5_54
 75 78 0 0 0
SMALL
GASTEIGER

@<TRIPOS>ATOM
      1 C1         -4.0076    1.4033   -1.5012 C.3     1  BENZYL1111    0.0140
      2 C2         -4.4006    2.6581   -0.6911 C.ar    1  BENZYL1111   -0.0398
      3 C3         -5.7177    3.1193   -0.8162 C.ar    1  BENZYL1111   -0.0580
      4 C4         -6.1661    4.2292   -0.0949 C.ar    1  BENZYL1111   -0.0615
      5 C5         -5.2920    4.9040    0.7597 C.ar    1  BENZYL1111   -0.0617
      6 C6         -3.9704    4.4678    0.8779 C.ar    1  BENZYL1111   -0.0615
      7 C7         -3.5251    3.3599    0.1502 C.ar    1  BENZYL1111   -0.0580
      8 C          -5.0164    0.2591   -1.2928 C.ar    2  PHENYL2222   -0.0398
      9 C          -5.6581    0.0764   -0.0613 C.ar    2  PHENYL2222   -0.0580
     10 C          -6.5804   -0.9597    0.1112 C.ar    2  PHENYL2222   -0.0615
     11 C          -6.8655   -1.8269   -0.9466 C.ar    2  PHENYL2222   -0.0617
     12 C          -6.2233   -1.6561   -2.1757 C.ar    2  PHENYL2222   -0.0615
     13 C          -5.3018   -0.6187   -2.3454 C.ar    2  PHENYL2222   -0.0580
     14 C14        -2.5701    0.8442   -1.2893 C.3     1  BENZYL1111   -0.0017
     15 C15        -2.3724    0.1623    0.0948 C.3     1  BENZYL1111   -0.0310
     16 N16        -0.9408    0.0803    0.4904 N.4     3  CYCLOHEXYL3333    0.2353
     17 C2         -0.0717   -0.7107   -0.4177 C.3     3  CYCLOHEXYL3333   -0.0302
     18 C3          1.4209   -0.5200   -0.0457 C.3     3  CYCLOHEXYL3333    0.0064
     19 C4          1.6739   -0.9017    1.4319 C.3     3  CYCLOHEXYL3333    0.0370
     20 C5          0.7213   -0.0793    2.3408 C.3     3  CYCLOHEXYL3333    0.0064
     21 C6         -0.7530   -0.2991    1.9149 C.3     3  CYCLOHEXYL3333   -0.0302
     22 N22         3.1164   -0.7641    1.7223 N.am    3  CYCLOHEXYL3333   -0.2825
     23 C23         3.7210    0.5417    2.0244 C.3     3  CYCLOHEXYL3333    0.0136
     24 C24         3.9272    0.7274    3.5507 C.3     3  CYCLOHEXYL3333   -0.0492
     25 C25         3.8985   -1.8842    1.6313 C.2     3  CYCLOHEXYL3333    0.3027
     26 O26         3.3916   -2.9347    1.2743 O.2     3  CYCLOHEXYL3333   -0.2526
     27 N27         5.2267   -1.9037    1.9141 N.am    3  CYCLOHEXYL3333   -0.2951
     28 C           6.5900   -3.1104    0.3110 C.ar    4  PHENYL4444   -0.0300
     29 C           7.8579   -2.5677    0.0708 C.ar    4  PHENYL4444   -0.0542
     30 C           8.4063   -2.5741   -1.2170 C.ar    4  PHENYL4444   -0.0501
     31 C           7.6619   -3.1013   -2.2776 C.ar    4  PHENYL4444   -0.0588
     32 C           6.3888   -3.6301   -2.0490 C.ar    4  PHENYL4444   -0.0612
     33 C           5.8555   -3.6363   -0.7575 C.ar    4  PHENYL4444   -0.0571
     34 C34         6.0076   -3.1291    1.7307 C.3     3  CYCLOHEXYL3333    0.0383
     35 C35         9.8093   -2.0123   -1.4784 C.3     4  PHENYL4444   -0.0397
     36 H          -4.0248    1.7693   -2.5065 H       1  BENZYL1111    0.0399
     37 H          -6.3678    2.6311   -1.4518 H       1  BENZYL1111    0.0620
     38 H          -7.1421    4.5497   -0.1938 H       1  BENZYL1111    0.0618
     39 H          -5.6202    5.7195    1.3003 H       1  BENZYL1111    0.0618
     40 H          -3.3195    4.9655    1.5053 H       1  BENZYL1111    0.0618
     41 H          -2.5425    3.0556    0.2330 H       1  BENZYL1111    0.0620
     42 H          -5.4484    0.7115    0.7246 H       2  PHENYL2222    0.0620
     43 H          -7.0513   -1.0843    1.0210 H       2  PHENYL2222    0.0618
     44 H          -7.5479   -2.5908   -0.8205 H       2  PHENYL2222    0.0618
     45 H          -6.4294   -2.2961   -2.9586 H       2  PHENYL2222    0.0618
     46 H          -4.8279   -0.4989   -3.2543 H       2  PHENYL2222    0.0620
     47 H          -1.8574    1.6339   -1.4051 H       1  BENZYL1111    0.0326
     48 H          -2.4205    0.0874   -2.0308 H       1  BENZYL1111    0.0326
     49 H          -2.7992   -0.8187    0.0783 H       1  BENZYL1111    0.0815
     50 H          -2.8691    0.7696    0.8224 H       1  BENZYL1111    0.0815
     51 H          -0.6123    1.0401    0.3841 H       3  CYCLOHEXYL3333    0.2033
     52 H          -0.2375   -0.4166   -1.4330 H       3  CYCLOHEXYL3333    0.0815
     53 H          -0.3196   -1.7459   -0.3093 H       3  CYCLOHEXYL3333    0.0815
     54 H           2.0371   -1.1139   -0.6880 H       3  CYCLOHEXYL3333    0.0335
     55 H           1.6704    0.5126   -0.1740 H       3  CYCLOHEXYL3333    0.0335
     56 H           1.4397   -1.9256    1.6358 H       3  CYCLOHEXYL3333    0.0505
     57 H           0.8545   -0.3617    3.3642 H       3  CYCLOHEXYL3333    0.0335
     58 H           0.9575    0.9588    2.2340 H       3  CYCLOHEXYL3333    0.0335
     59 H          -1.0301   -1.3220    2.0628 H       3  CYCLOHEXYL3333    0.0815
     60 H          -1.3806    0.3210    2.5203 H       3  CYCLOHEXYL3333    0.0815
     61 H           3.1035    1.3271    1.6414 H       3  CYCLOHEXYL3333    0.0462
     62 H           4.6806    0.5802    1.5527 H       3  CYCLOHEXYL3333    0.0462
     63 H           2.9794    0.6925    4.0460 H       3  CYCLOHEXYL3333    0.0245
     64 H           4.4142    1.6595    3.7480 H       3  CYCLOHEXYL3333    0.0245
     65 H           4.5467   -0.0627    3.9206 H       3  CYCLOHEXYL3333    0.0245
     66 H           5.6679   -1.0881    2.2448 H       3  CYCLOHEXYL3333    0.1506
     67 H           8.3941   -2.1584    0.8518 H       4  PHENYL4444    0.0623
     68 H           8.0543   -3.0997   -3.2321 H       4  PHENYL4444    0.0620
     69 H           5.8421   -4.0163   -2.8345 H       4  PHENYL4444    0.0618
     70 H           4.9163   -4.0303   -0.5911 H       4  PHENYL4444    0.0621
     71 H           5.3908   -3.9919    1.8720 H       3  CYCLOHEXYL3333    0.0512
     72 H           6.7964   -3.1750    2.4522 H       3  CYCLOHEXYL3333    0.0512
     73 H          10.0444   -2.1079   -2.5179 H       4  PHENYL4444    0.0278
     74 H          10.5328   -2.5320   -0.8856 H       4  PHENYL4444    0.0278
     75 H           9.8301   -0.9775   -1.2069 H       4  PHENYL4444    0.0278
@<TRIPOS>BOND
     1     1     2    1
     2     2     3   ar
     3     2     7   ar
     4     7     6   ar
     5     6     5   ar
     6     5     4   ar
     7     4     3   ar
     8     8     9   ar
     9     8    13   ar
    10    13    12   ar
    11    12    11   ar
    12    11    10   ar
    13    10     9   ar
    14     1     8    1
    15     1    14    1
    16    14    15    1
    17    16    17    1
    18    16    21    1
    19    21    20    1
    20    20    19    1
    21    19    18    1
    22    18    17    1
    23    15    16    1
    24    19    22    1
    25    22    23    1
    26    23    24    1
    27    22    25   am
    28    25    26    2
    29    25    27   am
    30    28    29   ar
    31    28    33   ar
    32    33    32   ar
    33    32    31   ar
    34    31    30   ar
    35    30    29   ar
    36    27    34    1
    37    34    28    1
    38    30    35    1
    39     1    36    1
    40     3    37    1
    41     4    38    1
    42     5    39    1
    43     6    40    1
    44     7    41    1
    45     9    42    1
    46    10    43    1
    47    11    44    1
    48    12    45    1
    49    13    46    1
    50    14    47    1
    51    14    48    1
    52    15    49    1
    53    15    50    1
    54    16    51    1
    55    17    52    1
    56    17    53    1
    57    18    54    1
    58    18    55    1
    59    19    56    1
    60    20    57    1
    61    20    58    1
    62    21    59    1
    63    21    60    1
    64    23    61    1
    65    23    62    1
    66    24    63    1
    67    24    64    1
    68    24    65    1
    69    27    66    1
    70    29    67    1
    71    31    68    1
    72    32    69    1
    73    33    70    1
    74    34    71    1
    75    34    72    1
    76    35    73    1
    77    35    74    1
    78    35    75    1
