@<TRIPOS>MOLECULE
CCR5_43
 67 70 0 0 0
SMALL
GASTEIGER

@<TRIPOS>ATOM
      1 C1         -4.0414    1.4823   -1.5033 C.3     1  BENZYL1111    0.0140
      2 C2         -4.4403    2.6772   -0.6095 C.ar    1  BENZYL1111   -0.0398
      3 C3         -5.7821    3.0804   -0.6293 C.ar    1  BENZYL1111   -0.0580
      4 C4         -6.2345    4.1256    0.1809 C.ar    1  BENZYL1111   -0.0615
      5 C5         -5.3394    4.7970    1.0163 C.ar    1  BENZYL1111   -0.0617
      6 C6         -3.9934    4.4243    1.0247 C.ar    1  BENZYL1111   -0.0615
      7 C7         -3.5452    3.3804    0.2095 C.ar    1  BENZYL1111   -0.0580
      8 C          -5.0115    0.2992   -1.3301 C.ar    2  PHENYL2222   -0.0398
      9 C          -5.5874    0.0142   -0.0856 C.ar    2  PHENYL2222   -0.0580
     10 C          -6.4713   -1.0591    0.0579 C.ar    2  PHENYL2222   -0.0615
     11 C          -6.7846   -1.8602   -1.0431 C.ar    2  PHENYL2222   -0.0617
     12 C          -6.2101   -1.5855   -2.2867 C.ar    2  PHENYL2222   -0.0615
     13 C          -5.3265   -0.5115   -2.4272 C.ar    2  PHENYL2222   -0.0580
     14 C14        -2.5857    0.9467   -1.3666 C.3     1  BENZYL1111   -0.0017
     15 C15        -2.3222    0.2197   -0.0170 C.3     1  BENZYL1111   -0.0310
     16 N16        -0.8728    0.1167    0.3029 N.4     3  CYCLOHEXYL3333    0.2353
     17 C2         -0.0708   -0.6859   -0.6555 C.3     3  CYCLOHEXYL3333   -0.0302
     18 C3          1.4413   -0.5325   -0.3496 C.3     3  CYCLOHEXYL3333    0.0064
     19 C4          1.7424   -0.9744    1.1062 C.3     3  CYCLOHEXYL3333    0.0368
     20 C5          0.8795   -0.1325    2.0755 C.3     3  CYCLOHEXYL3333    0.0064
     21 C6         -0.6216   -0.2710    1.7161 C.3     3  CYCLOHEXYL3333   -0.0302
     22 N22         3.1687   -0.8892    1.4682 N.am    3  CYCLOHEXYL3333   -0.2850
     23 C23         3.9899    0.2488    1.0360 C.3     3  CYCLOHEXYL3333    0.0049
     24 C           9.0877    0.3312    2.4209 C.1     5  CN5555      0.0992
     25 C25         3.6656   -1.8433    2.3142 C.2     3  CYCLOHEXYL3333    0.3065
     26 O26         2.8639   -2.5170    2.9415 O.2     3  CYCLOHEXYL3333   -0.2523
     27 N27         4.9229   -2.1320    2.5412 N.am    3  CYCLOHEXYL3333   -0.2693
     28 C           5.9678   -1.6449    1.8347 C.ar    4  PHENYL4444    0.0360
     29 C           6.9784   -0.9280    2.4826 C.ar    4  PHENYL4444   -0.0230
     30 C           8.0539   -0.4161    1.7510 C.ar    4  PHENYL4444    0.0535
     31 C           8.1246   -0.6289    0.3709 C.ar    4  PHENYL4444   -0.0442
     32 C           7.1257   -1.3631   -0.2753 C.ar    4  PHENYL4444   -0.0588
     33 C           6.0535   -1.8786    0.4587 C.ar    4  PHENYL4444   -0.0404
     34 N           9.9176    0.9317    2.9602 N.1     5  CN5555     -0.1909
     35 H          -4.1000    1.9084   -2.4831 H       1  BENZYL1111    0.0399
     36 H          -6.4477    2.5974   -1.2528 H       1  BENZYL1111    0.0620
     37 H          -7.2289    4.4008    0.1617 H       1  BENZYL1111    0.0618
     38 H          -5.6701    5.5633    1.6233 H       1  BENZYL1111    0.0618
     39 H          -3.3265    4.9217    1.6354 H       1  BENZYL1111    0.0618
     40 H          -2.5454    3.1248    0.2106 H       1  BENZYL1111    0.0620
     41 H          -5.3574    0.6010    0.7316 H       2  PHENYL2222    0.0620
     42 H          -6.8930   -1.2600    0.9781 H       2  PHENYL2222    0.0618
     43 H          -7.4381   -2.6520   -0.9381 H       2  PHENYL2222    0.0618
     44 H          -6.4382   -2.1758   -3.1019 H       2  PHENYL2222    0.0618
     45 H          -4.9028   -0.3145   -3.3474 H       2  PHENYL2222    0.0620
     46 H          -1.8939    1.7551   -1.4797 H       1  BENZYL1111    0.0326
     47 H          -2.4492    0.2208   -2.1408 H       1  BENZYL1111    0.0326
     48 H          -2.7565   -0.7579   -0.0428 H       1  BENZYL1111    0.0815
     49 H          -2.7764    0.8067    0.7537 H       1  BENZYL1111    0.0815
     50 H          -0.5276    1.0693    0.1855 H       3  CYCLOHEXYL3333    0.2033
     51 H          -0.2769   -0.3754   -1.6585 H       3  CYCLOHEXYL3333    0.0815
     52 H          -0.3399   -1.7162   -0.5504 H       3  CYCLOHEXYL3333    0.0815
     53 H           2.0170   -1.1155   -1.0378 H       3  CYCLOHEXYL3333    0.0335
     54 H           1.7109    0.4972   -0.4585 H       3  CYCLOHEXYL3333    0.0335
     55 H           1.4902   -2.0114    1.1839 H       3  CYCLOHEXYL3333    0.0504
     56 H           1.0469   -0.4465    3.0846 H       3  CYCLOHEXYL3333    0.0335
     57 H           1.1616    0.8954    1.9817 H       3  CYCLOHEXYL3333    0.0335
     58 H          -0.9457   -1.2772    1.8820 H       3  CYCLOHEXYL3333    0.0815
     59 H          -1.1780    0.3900    2.3472 H       3  CYCLOHEXYL3333    0.0815
     60 H           3.4185    0.8735    0.3817 H       3  CYCLOHEXYL3333    0.0429
     61 H           4.8722   -0.0983    0.5400 H       3  CYCLOHEXYL3333    0.0429
     62 H           4.2853    0.8154    1.8942 H       3  CYCLOHEXYL3333    0.0429
     63 H           5.1220   -2.7498    3.2815 H       3  CYCLOHEXYL3333    0.1564
     64 H           6.9302   -0.7766    3.5023 H       4  PHENYL4444    0.0649
     65 H           8.9142   -0.2440   -0.1707 H       4  PHENYL4444    0.0630
     66 H           7.1798   -1.5244   -1.2932 H       4  PHENYL4444    0.0619
     67 H           5.3237   -2.4328   -0.0159 H       4  PHENYL4444    0.0636
@<TRIPOS>BOND
     1     1     2    1
     2     2     3   ar
     3     2     7   ar
     4     7     6   ar
     5     6     5   ar
     6     5     4   ar
     7     4     3   ar
     8     8     9   ar
     9     8    13   ar
    10    13    12   ar
    11    12    11   ar
    12    11    10   ar
    13    10     9   ar
    14     1     8    1
    15     1    14    1
    16    14    15    1
    17    16    17    1
    18    16    21    1
    19    21    20    1
    20    20    19    1
    21    19    18    1
    22    18    17    1
    23    15    16    1
    24    19    22    1
    25    22    23    1
    26    24    34    3
    27    22    25   am
    28    25    26    2
    29    25    27   am
    30    28    29   ar
    31    28    33   ar
    32    33    32   ar
    33    32    31   ar
    34    31    30   ar
    35    30    29   ar
    36    27    28    1
    37    30    24    1
    38     1    35    1
    39     3    36    1
    40     4    37    1
    41     5    38    1
    42     6    39    1
    43     7    40    1
    44     9    41    1
    45    10    42    1
    46    11    43    1
    47    12    44    1
    48    13    45    1
    49    14    46    1
    50    14    47    1
    51    15    48    1
    52    15    49    1
    53    16    50    1
    54    17    51    1
    55    17    52    1
    56    18    53    1
    57    18    54    1
    58    19    55    1
    59    20    56    1
    60    20    57    1
    61    21    58    1
    62    21    59    1
    63    23    60    1
    64    23    61    1
    65    23    62    1
    66    27    63    1
    67    29    64    1
    68    31    65    1
    69    32    66    1
    70    33    67    1
