@<TRIPOS>MOLECULE
CCR5_07
 67 70 0 0 0
SMALL
GASTEIGER

@<TRIPOS>ATOM
      1 C1         -3.9952    1.4285   -1.5039 C.3     1  BENZYL1111    0.0140
      2 C2         -4.4313    2.6751   -0.7026 C.ar    1  BENZYL1111   -0.0398
      3 C3         -5.7747    3.0641   -0.7887 C.ar    1  BENZYL1111   -0.0580
      4 C4         -6.2609    4.1500   -0.0555 C.ar    1  BENZYL1111   -0.0615
      5 C5         -5.3980    4.8785    0.7659 C.ar    1  BENZYL1111   -0.0617
      6 C6         -4.0492    4.5227    0.8349 C.ar    1  BENZYL1111   -0.0615
      7 C7         -3.5669    3.4382    0.0956 C.ar    1  BENZYL1111   -0.0580
      8 C          -4.9764    0.2585   -1.3062 C.ar    2  PHENYL2222   -0.0398
      9 C          -5.6021    0.0424   -0.0719 C.ar    2  PHENYL2222   -0.0580
     10 C          -6.4962   -1.0192    0.0940 C.ar    2  PHENYL2222   -0.0615
     11 C          -6.7698   -1.8776   -0.9739 C.ar    2  PHENYL2222   -0.0617
     12 C          -6.1453   -1.6719   -2.2067 C.ar    2  PHENYL2222   -0.0615
     13 C          -5.2516   -0.6096   -2.3696 C.ar    2  PHENYL2222   -0.0580
     14 C14        -2.5505    0.8985   -1.2651 C.3     1  BENZYL1111   -0.0017
     15 C15        -2.3499    0.2746    0.1452 C.3     1  BENZYL1111   -0.0310
     16 N16        -0.9097    0.1778    0.5060 N.4     3  CYCLOHEXYL3333    0.2353
     17 C2         -0.1372   -0.8178   -0.2795 C.3     3  CYCLOHEXYL3333   -0.0302
     18 C3          1.3805   -0.7157    0.0194 C.3     3  CYCLOHEXYL3333    0.0063
     19 C4          1.6578   -0.8783    1.5349 C.3     3  CYCLOHEXYL3333    0.0353
     20 C5          0.8334    0.2029    2.2817 C.3     3  CYCLOHEXYL3333    0.0063
     21 C6         -0.6752    0.0464    1.9666 C.3     3  CYCLOHEXYL3333   -0.0302
     22 N22         3.1162   -0.8592    1.7477 N.am    3  CYCLOHEXYL3333   -0.3008
     23 C23         3.8450    0.3588    2.1282 C.3     3  CYCLOHEXYL3333    0.0035
     24 Cl24        7.6968    2.0956   -2.2598 Cl      4  PHENYL4444   -0.0835
     25 C25         3.8017   -1.9987    1.4390 C.2     3  CYCLOHEXYL3333    0.2199
     26 O26         3.2165   -3.0185    1.1105 O.2     3  CYCLOHEXYL3333   -0.2752
     27 C27         5.3099   -2.0938    1.4608 C.3     3  CYCLOHEXYL3333    0.0493
     28 C           5.9391   -1.0533    0.5242 C.ar    4  PHENYL4444   -0.0385
     29 C           7.0125   -0.2595    0.9453 C.ar    4  PHENYL4444   -0.0567
     30 C           7.5510    0.7075    0.0913 C.ar    4  PHENYL4444   -0.0431
     31 C           7.0273    0.8784   -1.1927 C.ar    4  PHENYL4444    0.0410
     32 C           5.9685    0.0755   -1.6242 C.ar    4  PHENYL4444   -0.0431
     33 C           5.4308   -0.8910   -0.7697 C.ar    4  PHENYL4444   -0.0567
     34 H          -4.0054    1.7965   -2.5086 H       1  BENZYL1111    0.0399
     35 H          -6.4161    2.5397   -1.4041 H       1  BENZYL1111    0.0620
     36 H          -7.2566    4.4132   -0.1211 H       1  BENZYL1111    0.0618
     37 H          -5.7544    5.6742    1.3181 H       1  BENZYL1111    0.0618
     38 H          -3.4056    5.0626    1.4342 H       1  BENZYL1111    0.0618
     39 H          -2.5644    3.1969    0.1378 H       1  BENZYL1111    0.0620
     40 H          -5.4015    0.6717    0.7211 H       2  PHENYL2222    0.0620
     41 H          -6.9547   -1.1691    1.0063 H       2  PHENYL2222    0.0618
     42 H          -7.4308   -2.6608   -0.8525 H       2  PHENYL2222    0.0618
     43 H          -6.3440   -2.3046   -2.9974 H       2  PHENYL2222    0.0618
     44 H          -4.7907   -0.4639   -3.2814 H       2  PHENYL2222    0.0620
     45 H          -1.8485    1.6931   -1.4091 H       1  BENZYL1111    0.0326
     46 H          -2.3867    0.1156   -1.9759 H       1  BENZYL1111    0.0326
     47 H          -2.7994   -0.6957    0.1806 H       1  BENZYL1111    0.0815
     48 H          -2.8224    0.9184    0.8573 H       1  BENZYL1111    0.0815
     49 H          -0.5313    1.0837    0.2292 H       3  CYCLOHEXYL3333    0.2033
     50 H          -0.3137   -0.6741   -1.3250 H       3  CYCLOHEXYL3333    0.0815
     51 H          -0.4669   -1.7946    0.0069 H       3  CYCLOHEXYL3333    0.0815
     52 H           1.9133   -1.4618   -0.5323 H       3  CYCLOHEXYL3333    0.0335
     53 H           1.7180    0.2539   -0.2819 H       3  CYCLOHEXYL3333    0.0335
     54 H           1.3370   -1.8152    1.9401 H       3  CYCLOHEXYL3333    0.0504
     55 H           0.9983    0.1276    3.3362 H       3  CYCLOHEXYL3333    0.0335
     56 H           1.1537    1.1676    1.9476 H       3  CYCLOHEXYL3333    0.0335
     57 H          -1.0271   -0.9031    2.3122 H       3  CYCLOHEXYL3333    0.0815
     58 H          -1.2147    0.8194    2.4729 H       3  CYCLOHEXYL3333    0.0815
     59 H           3.1469    1.1435    2.3330 H       3  CYCLOHEXYL3333    0.0429
     60 H           4.5119    0.6515    1.3444 H       3  CYCLOHEXYL3333    0.0429
     61 H           4.4221    0.1631    3.0077 H       3  CYCLOHEXYL3333    0.0429
     62 H           5.6187   -3.0776    1.1750 H       3  CYCLOHEXYL3333    0.0407
     63 H           5.6445   -1.8942    2.4574 H       3  CYCLOHEXYL3333    0.0407
     64 H           7.4078   -0.3886    1.8898 H       4  PHENYL4444    0.0621
     65 H           8.3366    1.2961    0.4098 H       4  PHENYL4444    0.0632
     66 H           5.5834    0.1961   -2.5740 H       4  PHENYL4444    0.0632
     67 H           4.6546   -1.4884   -1.0947 H       4  PHENYL4444    0.0621
@<TRIPOS>BOND
     1     1     2    1
     2     2     3   ar
     3     2     7   ar
     4     7     6   ar
     5     6     5   ar
     6     5     4   ar
     7     4     3   ar
     8     8     9   ar
     9     8    13   ar
    10    13    12   ar
    11    12    11   ar
    12    11    10   ar
    13    10     9   ar
    14     1     8    1
    15     1    14    1
    16    14    15    1
    17    16    17    1
    18    16    21    1
    19    21    20    1
    20    20    19    1
    21    19    18    1
    22    18    17    1
    23    15    16    1
    24    19    22    1
    25    22    23    1
    26    31    24    1
    27    22    25   am
    28    25    26    2
    29    25    27    1
    30    28    29   ar
    31    33    28   ar
    32    32    33   ar
    33    32    31   ar
    34    31    30   ar
    35    30    29   ar
    36    27    28    1
    37     1    34    1
    38     3    35    1
    39     4    36    1
    40     5    37    1
    41     6    38    1
    42     7    39    1
    43     9    40    1
    44    10    41    1
    45    11    42    1
    46    12    43    1
    47    13    44    1
    48    14    45    1
    49    14    46    1
    50    15    47    1
    51    15    48    1
    52    16    49    1
    53    17    50    1
    54    17    51    1
    55    18    52    1
    56    18    53    1
    57    19    54    1
    58    20    55    1
    59    20    56    1
    60    21    57    1
    61    21    58    1
    62    23    59    1
    63    23    60    1
    64    23    61    1
    65    27    62    1
    66    27    63    1
    67    29    64    1
    68    30    65    1
    69    32    66    1
    70    33    67    1
