@<TRIPOS>MOLECULE
2
 66 69 0 0 0
SMALL
GASTEIGER

@<TRIPOS>ATOM
      1 C1         -3.9865    1.4542   -1.4816 C.3     1  BENZYL111    0.0140
      2 C2         -4.4406    2.6894   -0.6733 C.ar    1  BENZYL111   -0.0398
      3 C3         -5.7841    3.0734   -0.7777 C.ar    1  BENZYL111   -0.0580
      4 C4         -6.2861    4.1528   -0.0455 C.ar    1  BENZYL111   -0.0615
      5 C5         -5.4392    4.8785    0.7948 C.ar    1  BENZYL111   -0.0617
      6 C6         -4.0908    4.5254    0.8851 C.ar    1  BENZYL111   -0.0615
      7 C7         -3.5926    3.4475    0.1468 C.ar    1  BENZYL111   -0.0580
      8 C          -4.9634    0.2764   -1.3120 C.ar    2  PHENYL222   -0.0398
      9 C          -5.6034    0.0417   -0.0886 C.ar    2  PHENYL222   -0.0580
     10 C          -6.4946   -1.0259    0.0521 C.ar    2  PHENYL222   -0.0615
     11 C          -6.7494   -1.8726   -1.0298 C.ar    2  PHENYL222   -0.0617
     12 C          -6.1094   -1.6490   -2.2515 C.ar    2  PHENYL222   -0.0615
     13 C          -5.2196   -0.5798   -2.3897 C.ar    2  PHENYL222   -0.0580
     14 C14        -2.5423    0.9285   -1.2322 C.3     1  BENZYL111   -0.0017
     15 C15        -2.3538    0.2769    0.1673 C.3     1  BENZYL111   -0.0310
     16 N16        -0.9117    0.1437    0.5085 N.4     3  CYCLOHEXYL333    0.2353
     17 C2         -0.1962   -0.9213   -0.2398 C.3     3  CYCLOHEXYL333   -0.0302
     18 C3          1.3329   -0.8168   -0.0154 C.3     3  CYCLOHEXYL333    0.0063
     19 C4          1.6629   -0.8900    1.4937 C.3     3  CYCLOHEXYL333    0.0356
     20 C5          0.8853    0.2308    2.2319 C.3     3  CYCLOHEXYL333    0.0063
     21 C6         -0.6359    0.0909    1.9676 C.3     3  CYCLOHEXYL333   -0.0302
     22 N22         3.1222   -0.8421    1.6711 N.am    3  CYCLOHEXYL333   -0.2972
     23 C23         3.8451    0.4244    1.8327 C.3     3  CYCLOHEXYL333    0.0038
     24 N           8.2926   -3.4903    0.2436 N.pl3   5  NO2555      0.0564
     25 C25         3.8069   -2.0189    1.6111 C.2     3  CYCLOHEXYL333    0.2467
     26 O26         3.2549   -3.0678    1.3207 O.2     3  CYCLOHEXYL333   -0.2700
     27 O           7.7744   -3.9444   -0.7536 O.2     5  NO2555     -0.1261
     28 C           6.1125   -2.7773    0.9628 C.ar    4  PHENYL444   -0.0194
     29 C           7.4992   -2.8631    1.1544 C.ar    4  PHENYL444    0.1269
     30 C           8.0474   -2.2838    2.3083 C.ar    4  PHENYL444   -0.0314
     31 C           7.2311   -1.6526    3.2514 C.ar    4  PHENYL444   -0.0589
     32 C           5.8509   -1.5845    3.0498 C.ar    4  PHENYL444   -0.0495
     33 C           5.2924   -2.1213    1.8863 C.ar    4  PHENYL444    0.0391
     34 O           9.4808   -3.5635    0.4710 O.2     5  NO2555     -0.1261
     35 H          -3.9852    1.8357   -2.4813 H       1  BENZYL111    0.0399
     36 H          -6.4137    2.5502   -1.4061 H       1  BENZYL111    0.0620
     37 H          -7.2815    4.4132   -0.1257 H       1  BENZYL111    0.0618
     38 H          -5.8070    5.6702    1.3453 H       1  BENZYL111    0.0618
     39 H          -3.4593    5.0626    1.4996 H       1  BENZYL111    0.0618
     40 H          -2.5907    3.2074    0.2060 H       1  BENZYL111    0.0620
     41 H          -5.4156    0.6615    0.7149 H       2  PHENYL222    0.0620
     42 H          -6.9649   -1.1889    0.9561 H       2  PHENYL222    0.0618
     43 H          -7.4080   -2.6604   -0.9269 H       2  PHENYL222    0.0618
     44 H          -6.2937   -2.2735   -3.0522 H       2  PHENYL222    0.0618
     45 H          -4.7477   -0.4203   -3.2935 H       2  PHENYL222    0.0620
     46 H          -1.8437    1.7302   -1.3511 H       1  BENZYL111    0.0326
     47 H          -2.3657    0.1600   -1.9554 H       1  BENZYL111    0.0326
     48 H          -2.8246   -0.6837    0.1893 H       1  BENZYL111    0.0815
     49 H          -2.8110    0.9137    0.8956 H       1  BENZYL111    0.0815
     50 H          -0.5117    1.0222    0.1788 H       3  CYCLOHEXYL333    0.2033
     51 H          -0.4193   -0.8489   -1.2838 H       3  CYCLOHEXYL333    0.0815
     52 H          -0.5272   -1.8713    0.1248 H       3  CYCLOHEXYL333    0.0815
     53 H           1.8360   -1.6019   -0.5402 H       3  CYCLOHEXYL333    0.0335
     54 H           1.6701    0.1256   -0.3936 H       3  CYCLOHEXYL333    0.0335
     55 H           1.3437   -1.8133    1.9301 H       3  CYCLOHEXYL333    0.0504
     56 H           1.0822    0.1850    3.2826 H       3  CYCLOHEXYL333    0.0335
     57 H           1.2131    1.1790    1.8600 H       3  CYCLOHEXYL333    0.0335
     58 H          -0.9977   -0.8289    2.3775 H       3  CYCLOHEXYL333    0.0815
     59 H          -1.1432    0.9045    2.4426 H       3  CYCLOHEXYL333    0.0815
     60 H           3.1459    1.2339    1.8588 H       3  CYCLOHEXYL333    0.0429
     61 H           4.5390    0.5600    1.0295 H       3  CYCLOHEXYL333    0.0429
     62 H           4.3921    0.4023    2.7520 H       3  CYCLOHEXYL333    0.0429
     63 H           5.6895   -3.2062    0.1248 H       4  PHENYL444    0.0648
     64 H           9.0669   -2.3241    2.4631 H       4  PHENYL444    0.0640
     65 H           7.6492   -1.2362    4.0981 H       4  PHENYL444    0.0618
     66 H           5.2455   -1.1395    3.7573 H       4  PHENYL444    0.0625
@<TRIPOS>BOND
     1     1     2    1
     2     2     3   ar
     3     2     7   ar
     4     7     6   ar
     5     6     5   ar
     6     5     4   ar
     7     4     3   ar
     8     8     9   ar
     9     8    13   ar
    10    13    12   ar
    11    12    11   ar
    12    11    10   ar
    13    10     9   ar
    14     1     8    1
    15     1    14    1
    16    14    15    1
    17    16    17    1
    18    16    21    1
    19    21    20    1
    20    20    19    1
    21    19    18    1
    22    18    17    1
    23    15    16    1
    24    19    22    1
    25    22    23    1
    26    25    33    1
    27    22    25   am
    28    25    26    2
    29    24    27    2
    30    28    29   ar
    31    28    33   ar
    32    33    32   ar
    33    32    31   ar
    34    31    30   ar
    35    30    29   ar
    36    24    34    2
    37    29    24    1
    38     1    35    1
    39     3    36    1
    40     4    37    1
    41     5    38    1
    42     6    39    1
    43     7    40    1
    44     9    41    1
    45    10    42    1
    46    11    43    1
    47    12    44    1
    48    13    45    1
    49    14    46    1
    50    14    47    1
    51    15    48    1
    52    15    49    1
    53    16    50    1
    54    17    51    1
    55    17    52    1
    56    18    53    1
    57    18    54    1
    58    19    55    1
    59    20    56    1
    60    20    57    1
    61    21    58    1
    62    21    59    1
    63    23    60    1
    64    23    61    1
    65    23    62    1
    66    28    63    1
    67    30    64    1
    68    31    65    1
    69    32    66    1
