@<TRIPOS>MOLECULE
CCR5_34
 75 78 0 0 0
SMALL
GASTEIGER

@<TRIPOS>ATOM
      1 C1         -4.0036    1.4144   -1.5060 C.3     1  BENZYL1111    0.0140
      2 C2         -4.4195    2.6764   -0.7188 C.ar    1  BENZYL1111   -0.0398
      3 C3         -5.7471    3.1063   -0.8447 C.ar    1  BENZYL1111   -0.0580
      4 C4         -6.2163    4.2185   -0.1405 C.ar    1  BENZYL1111   -0.0615
      5 C5         -5.3524    4.9287    0.6958 C.ar    1  BENZYL1111   -0.0617
      6 C6         -4.0204    4.5252    0.8125 C.ar    1  BENZYL1111   -0.0615
      7 C7         -3.5549    3.4138    0.1031 C.ar    1  BENZYL1111   -0.0580
      8 C          -4.9935    0.2575   -1.2777 C.ar    2  PHENYL2222   -0.0398
      9 C          -5.6276    0.0830   -0.0410 C.ar    2  PHENYL2222   -0.0580
     10 C          -6.5289   -0.9678    0.1522 C.ar    2  PHENYL2222   -0.0615
     11 C          -6.8013   -1.8572   -0.8903 C.ar    2  PHENYL2222   -0.0617
     12 C          -6.1686   -1.6930   -2.1252 C.ar    2  PHENYL2222   -0.0615
     13 C          -5.2681   -0.6410   -2.3157 C.ar    2  PHENYL2222   -0.0580
     14 C14        -2.5584    0.8810   -1.2794 C.3     1  BENZYL1111   -0.0017
     15 C15        -2.3594    0.2256    0.1171 C.3     1  BENZYL1111   -0.0310
     16 N16        -0.9299    0.1322    0.5185 N.4     3  CYCLOHEXYL3333    0.2353
     17 C2         -0.0577   -0.6423   -0.3999 C.3     3  CYCLOHEXYL3333   -0.0302
     18 C3          1.4309   -0.4902    0.0029 C.3     3  CYCLOHEXYL3333    0.0063
     19 C4          1.6583   -0.9303    1.4687 C.3     3  CYCLOHEXYL3333    0.0356
     20 C5          0.7075   -0.1199    2.3887 C.3     3  CYCLOHEXYL3333    0.0063
     21 C6         -0.7639   -0.2923    1.9328 C.3     3  CYCLOHEXYL3333   -0.0302
     22 N22         3.1032   -0.8269    1.7508 N.am    3  CYCLOHEXYL3333   -0.2980
     23 C23         3.7257    0.4200    2.2232 C.3     3  CYCLOHEXYL3333    0.0121
     24 C24         3.8034    0.4862    3.7711 C.3     3  CYCLOHEXYL3333   -0.0493
     25 C25         3.8758   -1.9193    1.4712 C.2     3  CYCLOHEXYL3333    0.2201
     26 O26         3.3808   -2.9520    1.0481 O.2     3  CYCLOHEXYL3333   -0.2752
     27 C27         5.3803   -1.9553    1.6257 C.3     3  CYCLOHEXYL3333    0.0493
     28 C           6.0826   -1.1751    0.5041 C.ar    4  PHENYL4444   -0.0385
     29 C           7.2110   -0.3945    0.7820 C.ar    4  PHENYL4444   -0.0563
     30 C           7.8197    0.3529   -0.2303 C.ar    4  PHENYL4444   -0.0351
     31 C           7.3046    0.3292   -1.5288 C.ar    4  PHENYL4444    0.1050
     32 C           6.2019   -0.4786   -1.8187 C.ar    4  PHENYL4444   -0.0351
     33 C           5.5979   -1.2322   -0.8080 C.ar    4  PHENYL4444   -0.0563
     34 S1          8.0755    1.2970   -2.8044 S.O2    5  SULFONYL5555    0.0559
     35 O           7.1503    1.4538   -3.9087 O.2     5  SULFONYL5555   -0.1533
     36 O           9.4032    0.7684   -3.0447 O.2     5  SULFONYL5555   -0.1533
     37 N37         8.2205    2.7353   -2.0619 N.3     5  SULFONYL5555   -0.2035
     38 H          -4.0236    1.7629   -2.5175 H       1  BENZYL1111    0.0399
     39 H          -6.3895    2.5928   -1.4682 H       1  BENZYL1111    0.0620
     40 H          -7.2000    4.5146   -0.2384 H       1  BENZYL1111    0.0618
     41 H          -5.6958    5.7461    1.2240 H       1  BENZYL1111    0.0618
     42 H          -3.3767    5.0498    1.4252 H       1  BENZYL1111    0.0618
     43 H          -2.5651    3.1333    0.1852 H       1  BENZYL1111    0.0620
     44 H          -5.4278    0.7352    0.7334 H       2  PHENYL2222    0.0620
     45 H          -6.9937   -1.0868    1.0659 H       2  PHENYL2222    0.0618
     46 H          -7.4674   -2.6326   -0.7487 H       2  PHENYL2222    0.0618
     47 H          -6.3662   -2.3488   -2.8971 H       2  PHENYL2222    0.0618
     48 H          -4.8018   -0.5257   -3.2291 H       2  PHENYL2222    0.0620
     49 H          -1.8572    1.6795   -1.4045 H       1  BENZYL1111    0.0326
     50 H          -2.3922    0.1154   -2.0082 H       1  BENZYL1111    0.0326
     51 H          -2.7987   -0.7501    0.1222 H       1  BENZYL1111    0.0815
     52 H          -2.8431    0.8592    0.8309 H       1  BENZYL1111    0.0815
     53 H          -0.5928    1.0914    0.4369 H       3  CYCLOHEXYL3333    0.2033
     54 H          -0.2008   -0.3120   -1.4075 H       3  CYCLOHEXYL3333    0.0815
     55 H          -0.3243   -1.6762   -0.3296 H       3  CYCLOHEXYL3333    0.0815
     56 H           2.0479   -1.0688   -0.6524 H       3  CYCLOHEXYL3333    0.0335
     57 H           1.6961    0.5430   -0.0810 H       3  CYCLOHEXYL3333    0.0335
     58 H           1.4029   -1.9518    1.6589 H       3  CYCLOHEXYL3333    0.0504
     59 H           0.8176   -0.4396    3.4039 H       3  CYCLOHEXYL3333    0.0335
     60 H           0.9670    0.9159    2.3202 H       3  CYCLOHEXYL3333    0.0335
     61 H          -1.0660   -1.3124    2.0472 H       3  CYCLOHEXYL3333    0.0815
     62 H          -1.3829    0.3280    2.5468 H       3  CYCLOHEXYL3333    0.0815
     63 H           3.1786    1.2612    1.8518 H       3  CYCLOHEXYL3333    0.0462
     64 H           4.7281    0.4410    1.8495 H       3  CYCLOHEXYL3333    0.0462
     65 H           2.8146    0.4672    4.1795 H       3  CYCLOHEXYL3333    0.0245
     66 H           4.3142    1.3747    4.0787 H       3  CYCLOHEXYL3333    0.0245
     67 H           4.3495   -0.3600    4.1324 H       3  CYCLOHEXYL3333    0.0245
     68 H           5.7213   -2.9695    1.6323 H       3  CYCLOHEXYL3333    0.0407
     69 H           5.6264   -1.4868    2.5557 H       3  CYCLOHEXYL3333    0.0407
     70 H           7.5955   -0.3707    1.7394 H       4  PHENYL4444    0.0621
     71 H           8.6525    0.9242   -0.0178 H       4  PHENYL4444    0.0637
     72 H           5.8324   -0.5190   -2.7814 H       4  PHENYL4444    0.0637
     73 H           4.7898   -1.8343   -1.0305 H       4  PHENYL4444    0.0621
     74 H           8.6591    3.4031   -2.6960 H       5  SULFONYL5555    0.1442
     75 H           8.7752    2.6393   -1.2113 H       5  SULFONYL5555    0.1442
@<TRIPOS>BOND
     1     1     2    1
     2     2     3   ar
     3     2     7   ar
     4     7     6   ar
     5     6     5   ar
     6     5     4   ar
     7     4     3   ar
     8     8     9   ar
     9     8    13   ar
    10    13    12   ar
    11    12    11   ar
    12    11    10   ar
    13    10     9   ar
    14     1     8    1
    15     1    14    1
    16    14    15    1
    17    16    17    1
    18    16    21    1
    19    21    20    1
    20    20    19    1
    21    19    18    1
    22    18    17    1
    23    15    16    1
    24    19    22    1
    25    22    23    1
    26    23    24    1
    27    22    25   am
    28    25    26    2
    29    25    27    1
    30    28    29   ar
    31    28    33   ar
    32    33    32   ar
    33    32    31   ar
    34    31    30   ar
    35    30    29   ar
    36    27    28    1
    37    34    35    2
    38    34    36    2
    39    31    34    1
    40    34    37    1
    41     1    38    1
    42     3    39    1
    43     4    40    1
    44     5    41    1
    45     6    42    1
    46     7    43    1
    47     9    44    1
    48    10    45    1
    49    11    46    1
    50    12    47    1
    51    13    48    1
    52    14    49    1
    53    14    50    1
    54    15    51    1
    55    15    52    1
    56    16    53    1
    57    17    54    1
    58    17    55    1
    59    18    56    1
    60    18    57    1
    61    19    58    1
    62    20    59    1
    63    20    60    1
    64    21    61    1
    65    21    62    1
    66    23    63    1
    67    23    64    1
    68    24    65    1
    69    24    66    1
    70    24    67    1
    71    27    68    1
    72    27    69    1
    73    29    70    1
    74    30    71    1
    75    32    72    1
    76    33    73    1
    77    37    74    1
    78    37    75    1
