@<TRIPOS>MOLECULE
CCR5_58
 76 79 0 0 0
SMALL
GASTEIGER

@<TRIPOS>ATOM
      1 C1         -4.0023    1.4131   -1.5055 C.3     1  BENZYL1111    0.0140
      2 C2         -4.4159    2.6751   -0.7171 C.ar    1  BENZYL1111   -0.0398
      3 C3         -5.7410    3.1113   -0.8485 C.ar    1  BENZYL1111   -0.0580
      4 C4         -6.2088    4.2236   -0.1436 C.ar    1  BENZYL1111   -0.0615
      5 C5         -5.3459    4.9279    0.6986 C.ar    1  BENZYL1111   -0.0617
      6 C6         -4.0162    4.5182    0.8207 C.ar    1  BENZYL1111   -0.0615
      7 C7         -3.5521    3.4064    0.1109 C.ar    1  BENZYL1111   -0.0580
      8 C          -4.9962    0.2595   -1.2781 C.ar    2  PHENYL2222   -0.0397
      9 C          -5.6321    0.0875   -0.0419 C.ar    2  PHENYL2222   -0.0566
     10 C          -6.5378   -0.9597    0.1498 C.ar    2  PHENYL2222   -0.0431
     11 C          -6.8124   -1.8479   -0.8927 C.ar    2  PHENYL2222    0.0410
     12 C          -6.1778   -1.6863   -2.1265 C.ar    2  PHENYL2222   -0.0431
     13 C          -5.2728   -0.6380   -2.3164 C.ar    2  PHENYL2222   -0.0566
     14 C14        -2.5586    0.8756   -1.2791 C.3     1  BENZYL1111   -0.0017
     15 C15        -2.3622    0.2128    0.1144 C.3     1  BENZYL1111   -0.0310
     16 N16        -0.9334    0.1159    0.5172 N.4     3  CYCLOHEXYL3333    0.2353
     17 C2         -0.0585   -0.6537   -0.4028 C.3     3  CYCLOHEXYL3333   -0.0302
     18 C3          1.4294   -0.4938   -0.0001 C.3     3  CYCLOHEXYL3333    0.0063
     19 C4          1.6604   -0.9330    1.4656 C.3     3  CYCLOHEXYL3333    0.0356
     20 C5          0.7026   -0.1327    2.3873 C.3     3  CYCLOHEXYL3333    0.0063
     21 C6         -0.7673   -0.3140    1.9299 C.3     3  CYCLOHEXYL3333   -0.0302
     22 N22         3.1044   -0.8143    1.7476 N.am    3  CYCLOHEXYL3333   -0.2980
     23 C23         3.7146    0.4433    2.2080 C.3     3  CYCLOHEXYL3333    0.0121
     24 C24         3.7968    0.5223    3.7551 C.3     3  CYCLOHEXYL3333   -0.0493
     25 C25         3.8877   -1.9016    1.4783 C.2     3  CYCLOHEXYL3333    0.2201
     26 O26         3.4027   -2.9449    1.0702 O.2     3  CYCLOHEXYL3333   -0.2752
     27 C27         5.3935   -1.9185    1.6249 C.3     3  CYCLOHEXYL3333    0.0493
     28 C           6.0742   -1.1449    0.4857 C.ar    4  PHENYL4444   -0.0385
     29 C           7.1804   -0.3264    0.7433 C.ar    4  PHENYL4444   -0.0563
     30 C           7.7625    0.4193   -0.2859 C.ar    4  PHENYL4444   -0.0366
     31 C           7.2458    0.3511   -1.5822 C.ar    4  PHENYL4444    0.0879
     32 C           6.1685   -0.4969   -1.8518 C.ar    4  PHENYL4444   -0.0366
     33 C           5.5896   -1.2462   -0.8236 C.ar    4  PHENYL4444   -0.0563
     34 S1          7.9898    1.2938   -2.8908 S.O2    5  SULFONYL5555   -0.0059
     35 O           7.0206    1.4841   -3.9520 O.2     5  SULFONYL5555   -0.1696
     36 O           8.6653    2.4449   -2.3247 O.2     5  SULFONYL5555   -0.1696
     37 Cl37       -7.9484   -3.1597   -0.6532 Cl      6  SULFONYL6666   -0.0835
     38 C40         9.2344    0.1253   -3.4588 C.3     5  SULFONYL5555    0.0596
     39 H          -4.0197    1.7622   -2.5168 H       1  BENZYL1111    0.0399
     40 H          -6.3825    2.6024   -1.4766 H       1  BENZYL1111    0.0620
     41 H          -7.1908    4.5241   -0.2453 H       1  BENZYL1111    0.0618
     42 H          -5.6883    5.7455    1.2272 H       1  BENZYL1111    0.0618
     43 H          -3.3731    5.0385    1.4377 H       1  BENZYL1111    0.0618
     44 H          -2.5641    3.1212    0.1972 H       1  BENZYL1111    0.0620
     45 H          -5.4304    0.7387    0.7329 H       2  PHENYL2222    0.0621
     46 H          -7.0043   -1.0768    1.0629 H       2  PHENYL2222    0.0632
     47 H          -6.3773   -2.3414   -2.8986 H       2  PHENYL2222    0.0632
     48 H          -4.8048   -0.5247   -3.2292 H       2  PHENYL2222    0.0621
     49 H          -1.8556    1.6732   -1.3995 H       1  BENZYL1111    0.0326
     50 H          -2.3934    0.1129   -2.0112 H       1  BENZYL1111    0.0326
     51 H          -2.8025   -0.7624    0.1139 H       1  BENZYL1111    0.0815
     52 H          -2.8463    0.8432    0.8308 H       1  BENZYL1111    0.0815
     53 H          -0.5980    1.0760    0.4393 H       3  CYCLOHEXYL3333    0.2033
     54 H          -0.2038   -0.3231   -1.4100 H       3  CYCLOHEXYL3333    0.0815
     55 H          -0.3200   -1.6890   -0.3341 H       3  CYCLOHEXYL3333    0.0815
     56 H           2.0493   -1.0687   -0.6559 H       3  CYCLOHEXYL3333    0.0335
     57 H           1.6886    0.5410   -0.0834 H       3  CYCLOHEXYL3333    0.0335
     58 H           1.4141   -1.9570    1.6542 H       3  CYCLOHEXYL3333    0.0504
     59 H           0.8142   -0.4549    3.4015 H       3  CYCLOHEXYL3333    0.0335
     60 H           0.9545    0.9052    2.3220 H       3  CYCLOHEXYL3333    0.0335
     61 H          -1.0620   -1.3368    2.0392 H       3  CYCLOHEXYL3333    0.0815
     62 H          -1.3921    0.2981    2.5462 H       3  CYCLOHEXYL3333    0.0815
     63 H           3.1568    1.2754    1.8320 H       3  CYCLOHEXYL3333    0.0462
     64 H           4.7154    0.4727    1.8305 H       3  CYCLOHEXYL3333    0.0462
     65 H           2.8097    0.4952    4.1671 H       3  CYCLOHEXYL3333    0.0245
     66 H           4.2985    1.4188    4.0541 H       3  CYCLOHEXYL3333    0.0245
     67 H           4.3537   -0.3149    4.1209 H       3  CYCLOHEXYL3333    0.0245
     68 H           5.7470   -2.9283    1.6424 H       3  CYCLOHEXYL3333    0.0407
     69 H           5.6423   -1.4372    2.5476 H       3  CYCLOHEXYL3333    0.0407
     70 H           7.5682   -0.2733    1.6982 H       4  PHENYL4444    0.0621
     71 H           8.5764    1.0220   -0.0876 H       4  PHENYL4444    0.0637
     72 H           5.7992   -0.5702   -2.8127 H       4  PHENYL4444    0.0637
     73 H           4.8003   -1.8778   -1.0310 H       4  PHENYL4444    0.0621
     74 H           9.7848    0.5556   -4.2692 H       5  SULFONYL5555    0.0468
     75 H           8.7710   -0.7878   -3.7693 H       5  SULFONYL5555    0.0468
     76 H           9.9054   -0.0926   -2.6543 H       5  SULFONYL5555    0.0468
@<TRIPOS>BOND
     1     1     2    1
     2     2     3   ar
     3     2     7   ar
     4     7     6   ar
     5     6     5   ar
     6     5     4   ar
     7     4     3   ar
     8     8     9   ar
     9     8    13   ar
    10    13    12   ar
    11    12    11   ar
    12    11    10   ar
    13    10     9   ar
    14     1     8    1
    15     1    14    1
    16    14    15    1
    17    16    17    1
    18    16    21    1
    19    21    20    1
    20    20    19    1
    21    19    18    1
    22    18    17    1
    23    15    16    1
    24    19    22    1
    25    22    23    1
    26    23    24    1
    27    22    25   am
    28    25    26    2
    29    25    27    1
    30    28    29   ar
    31    28    33   ar
    32    33    32   ar
    33    32    31   ar
    34    31    30   ar
    35    30    29   ar
    36    27    28    1
    37    34    35    2
    38    34    36    2
    39    31    34    1
    40    11    37    1
    41    34    38    1
    42     1    39    1
    43     3    40    1
    44     4    41    1
    45     5    42    1
    46     6    43    1
    47     7    44    1
    48     9    45    1
    49    10    46    1
    50    12    47    1
    51    13    48    1
    52    14    49    1
    53    14    50    1
    54    15    51    1
    55    15    52    1
    56    16    53    1
    57    17    54    1
    58    17    55    1
    59    18    56    1
    60    18    57    1
    61    19    58    1
    62    20    59    1
    63    20    60    1
    64    21    61    1
    65    21    62    1
    66    23    63    1
    67    23    64    1
    68    24    65    1
    69    24    66    1
    70    24    67    1
    71    27    68    1
    72    27    69    1
    73    29    70    1
    74    30    71    1
    75    32    72    1
    76    33    73    1
    77    38    74    1
    78    38    75    1
    79    38    76    1
