@<TRIPOS>MOLECULE
37
 76 80 0 0 0
SMALL
GASTEIGER

@<TRIPOS>ATOM
      1 C1         -3.9845    1.4545   -1.4975 C.3     1  BENZYL111    0.0140
      2 C2         -4.4404    2.6866   -0.6846 C.ar    1  BENZYL111   -0.0398
      3 C3         -5.7906    3.0533   -0.7623 C.ar    1  BENZYL111   -0.0580
      4 C4         -6.2941    4.1204   -0.0133 C.ar    1  BENZYL111   -0.0615
      5 C5         -5.4416    4.8545    0.8139 C.ar    1  BENZYL111   -0.0617
      6 C6         -4.0857    4.5242    0.8717 C.ar    1  BENZYL111   -0.0615
      7 C7         -3.5866    3.4584    0.1168 C.ar    1  BENZYL111   -0.0580
      8 C          -4.9576    0.2737   -1.3231 C.ar    2  PHENYL222   -0.0398
      9 C          -5.5839    0.0316   -0.0939 C.ar    2  PHENYL222   -0.0580
     10 C          -6.4717   -1.0382    0.0516 C.ar    2  PHENYL222   -0.0615
     11 C          -6.7382   -1.8792   -1.0319 C.ar    2  PHENYL222   -0.0617
     12 C          -6.1126   -1.6479   -2.2596 C.ar    2  PHENYL222   -0.0615
     13 C          -5.2250   -0.5774   -2.4021 C.ar    2  PHENYL222   -0.0580
     14 C14        -2.5378    0.9333   -1.2501 C.3     1  BENZYL111   -0.0017
     15 C15        -2.3450    0.3039    0.1583 C.3     1  BENZYL111   -0.0310
     16 N16        -0.9021    0.1815    0.5016 N.4     3  CYCLOHEXYL333    0.2353
     17 C2         -0.1955   -0.9180   -0.2013 C.3     3  CYCLOHEXYL333   -0.0302
     18 C3          1.3314   -0.8422    0.0490 C.3     3  CYCLOHEXYL333    0.0063
     19 C4          1.6565   -0.8875    1.5638 C.3     3  CYCLOHEXYL333    0.0359
     20 C5          0.8822    0.2665    2.2505 C.3     3  CYCLOHEXYL333    0.0063
     21 C6         -0.6372    0.1646    1.9616 C.3     3  CYCLOHEXYL333   -0.0302
     22 N22         3.1236   -0.8582    1.6927 N.am    3  CYCLOHEXYL333   -0.2947
     23 C23         3.8688    0.3949    1.8259 C.3     3  CYCLOHEXYL333    0.0264
     24 C24         3.6553    1.2308    3.1102 C.3     3  CYCLOHEXYL333   -0.0326
     25 C25         3.7914   -2.0252    1.4688 C.2     3  CYCLOHEXYL333    0.2204
     26 O26         3.1867   -3.0778    1.3398 O.2     3  CYCLOHEXYL333   -0.2752
     27 C27         5.2944   -2.1291    1.3434 C.3     3  CYCLOHEXYL333    0.0493
     28 C           5.9043   -1.0826    0.4013 C.ar    4  PHENYL444   -0.0385
     29 C           7.0873   -0.4163    0.7414 C.ar    4  PHENYL444   -0.0563
     30 C           7.6249    0.5491   -0.1147 C.ar    4  PHENYL444   -0.0351
     31 C           6.9965    0.8388   -1.3287 C.ar    4  PHENYL444    0.1050
     32 C           5.8148    0.1764   -1.6708 C.ar    4  PHENYL444   -0.0351
     33 C           5.2773   -0.7889   -0.8148 C.ar    4  PHENYL444   -0.0563
     34 C34         5.0132    0.5509    2.8550 C.3     3  CYCLOHEXYL333   -0.0326
     35 S1          7.6732    2.0585   -2.4293 S.O2    5  SULFONYL555    0.0559
     36 O           6.7266    3.1495   -2.5448 O.2     5  SULFONYL555   -0.1533
     37 O           9.0474    2.3302   -2.0578 O.2     5  SULFONYL555   -0.1533
     38 N38         7.6842    1.2340   -3.8294 N.3     5  SULFONYL555   -0.2035
     39 H          -3.9869    1.8351   -2.4975 H       1  BENZYL111    0.0399
     40 H          -6.4242    2.5262   -1.3834 H       1  BENZYL111    0.0620
     41 H          -7.2949    4.3656   -0.0715 H       1  BENZYL111    0.0618
     42 H          -5.8107    5.6355    1.3785 H       1  BENZYL111    0.0618
     43 H          -3.4494    5.0693    1.4743 H       1  BENZYL111    0.0618
     44 H          -2.5791    3.2373    0.1497 H       1  BENZYL111    0.0620
     45 H          -5.3884    0.6478    0.7105 H       2  PHENYL222    0.0620
     46 H          -6.9308   -1.2071    0.9603 H       2  PHENYL222    0.0618
     47 H          -7.3947   -2.6683   -0.9257 H       2  PHENYL222    0.0618
     48 H          -6.3059   -2.2678   -3.0617 H       2  PHENYL222    0.0618
     49 H          -4.7630   -0.4131   -3.3102 H       2  PHENYL222    0.0620
     50 H          -1.8402    1.7335   -1.3842 H       1  BENZYL111    0.0326
     51 H          -2.3623    0.1556   -1.9637 H       1  BENZYL111    0.0326
     52 H          -2.8119   -0.6582    0.1952 H       1  BENZYL111    0.0815
     53 H          -2.8039    0.9504    0.8769 H       1  BENZYL111    0.0815
     54 H          -0.4962    1.0451    0.1413 H       3  CYCLOHEXYL333    0.2033
     55 H          -0.3972   -0.8707   -1.2510 H       3  CYCLOHEXYL333    0.0815
     56 H          -0.5539   -1.8493    0.1849 H       3  CYCLOHEXYL333    0.0815
     57 H           1.8241   -1.6478   -0.4542 H       3  CYCLOHEXYL333    0.0335
     58 H           1.6853    0.0902   -0.3386 H       3  CYCLOHEXYL333    0.0335
     59 H           1.3352   -1.7768    2.0645 H       3  CYCLOHEXYL333    0.0504
     60 H           1.0560    0.2464    3.3061 H       3  CYCLOHEXYL333    0.0335
     61 H           1.2380    1.1933    1.8512 H       3  CYCLOHEXYL333    0.0335
     62 H          -1.0329   -0.7301    2.3950 H       3  CYCLOHEXYL333    0.0815
     63 H          -1.1199    1.0129    2.4002 H       3  CYCLOHEXYL333    0.0815
     64 H           3.7991    0.5563    0.7705 H       3  CYCLOHEXYL333    0.0500
     65 H           2.9921    0.9360    3.8965 H       3  CYCLOHEXYL333    0.0284
     66 H           3.3370    2.2311    3.3178 H       3  CYCLOHEXYL333    0.0284
     67 H           5.5587   -3.1102    1.0079 H       3  CYCLOHEXYL333    0.0407
     68 H           5.6971   -1.9377    2.3161 H       3  CYCLOHEXYL333    0.0407
     69 H           7.5650   -0.6389    1.6287 H       4  PHENYL444    0.0621
     70 H           8.4879    1.0490    0.1504 H       4  PHENYL444    0.0637
     71 H           5.3376    0.4005   -2.5580 H       4  PHENYL444    0.0637
     72 H           4.4138   -1.2875   -1.0809 H       4  PHENYL444    0.0621
     73 H           5.9114    1.0961    2.6527 H       3  CYCLOHEXYL333    0.0284
     74 H           5.6355   -0.1255    3.4028 H       3  CYCLOHEXYL333    0.0284
     75 H           8.0581    1.8266   -4.5706 H       5  SULFONYL555    0.1442
     76 H           6.7408    0.9262   -4.0654 H       5  SULFONYL555    0.1442
@<TRIPOS>BOND
     1     1     2    1
     2     2     3   ar
     3     2     7   ar
     4     7     6   ar
     5     6     5   ar
     6     5     4   ar
     7     4     3   ar
     8     8     9   ar
     9     8    13   ar
    10    13    12   ar
    11    12    11   ar
    12    11    10   ar
    13    10     9   ar
    14     1     8    1
    15     1    14    1
    16    14    15    1
    17    16    17    1
    18    16    21    1
    19    21    20    1
    20    20    19    1
    21    19    18    1
    22    18    17    1
    23    15    16    1
    24    19    22    1
    25    22    23    1
    26    23    24    1
    27    22    25   am
    28    25    26    2
    29    25    27    1
    30    28    29   ar
    31    28    33   ar
    32    33    32   ar
    33    32    31   ar
    34    31    30   ar
    35    30    29   ar
    36    27    28    1
    37    23    34    1
    38    24    34    1
    39    35    36    2
    40    35    37    2
    41    31    35    1
    42    35    38    1
    43     1    39    1
    44     3    40    1
    45     4    41    1
    46     5    42    1
    47     6    43    1
    48     7    44    1
    49     9    45    1
    50    10    46    1
    51    11    47    1
    52    12    48    1
    53    13    49    1
    54    14    50    1
    55    14    51    1
    56    15    52    1
    57    15    53    1
    58    16    54    1
    59    17    55    1
    60    17    56    1
    61    18    57    1
    62    18    58    1
    63    19    59    1
    64    20    60    1
    65    20    61    1
    66    21    62    1
    67    21    63    1
    68    23    64    1
    69    24    65    1
    70    24    66    1
    71    27    67    1
    72    27    68    1
    73    29    69    1
    74    30    70    1
    75    32    71    1
    76    33    72    1
    77    34    73    1
    78    34    74    1
    79    38    75    1
    80    38    76    1
