@<TRIPOS>MOLECULE
CCR5_19
 67 70 0 0 0
SMALL
GASTEIGER

@<TRIPOS>ATOM
      1 C1         -3.9955    1.4276   -1.5041 C.3     1  BENZYL1111    0.0140
      2 C2         -4.4308    2.6750   -0.7036 C.ar    1  BENZYL1111   -0.0398
      3 C3         -5.7734    3.0662   -0.7923 C.ar    1  BENZYL1111   -0.0580
      4 C4         -6.2591    4.1534   -0.0607 C.ar    1  BENZYL1111   -0.0615
      5 C5         -5.3964    4.8808    0.7619 C.ar    1  BENZYL1111   -0.0617
      6 C6         -4.0484    4.5225    0.8339 C.ar    1  BENZYL1111   -0.0615
      7 C7         -3.5667    3.4368    0.0960 C.ar    1  BENZYL1111   -0.0580
      8 C          -4.9769    0.2581   -1.3047 C.ar    2  PHENYL2222   -0.0398
      9 C          -5.6035    0.0444   -0.0704 C.ar    2  PHENYL2222   -0.0580
     10 C          -6.4977   -1.0168    0.0970 C.ar    2  PHENYL2222   -0.0615
     11 C          -6.7707   -1.8774   -0.9694 C.ar    2  PHENYL2222   -0.0617
     12 C          -6.1453   -1.6741   -2.2022 C.ar    2  PHENYL2222   -0.0615
     13 C          -5.2515   -0.6120   -2.3666 C.ar    2  PHENYL2222   -0.0580
     14 C14        -2.5508    0.8976   -1.2657 C.3     1  BENZYL1111   -0.0017
     15 C15        -2.3502    0.2725    0.1440 C.3     1  BENZYL1111   -0.0310
     16 N16        -0.9104    0.1769    0.5067 N.4     3  CYCLOHEXYL3333    0.2353
     17 C2         -0.1333   -0.8105   -0.2846 C.3     3  CYCLOHEXYL3333   -0.0302
     18 C3          1.3835   -0.7071    0.0190 C.3     3  CYCLOHEXYL3333    0.0063
     19 C4          1.6572   -0.8803    1.5339 C.3     3  CYCLOHEXYL3333    0.0353
     20 C5          0.8284    0.1933    2.2866 C.3     3  CYCLOHEXYL3333    0.0063
     21 C6         -0.6791    0.0348    1.9667 C.3     3  CYCLOHEXYL3333   -0.0302
     22 N22         3.1150   -0.8594    1.7502 N.am    3  CYCLOHEXYL3333   -0.3008
     23 C23         3.8405    0.3577    2.1401 C.3     3  CYCLOHEXYL3333    0.0035
     24 Br24        7.7168    2.2103   -2.2945 Br      4  PHENYL4444   -0.0503
     25 C25         3.8040   -1.9953    1.4354 C.2     3  CYCLOHEXYL3333    0.2199
     26 O26         3.2219   -3.0144    1.0992 O.2     3  CYCLOHEXYL3333   -0.2752
     27 C27         5.3123   -2.0866    1.4590 C.3     3  CYCLOHEXYL3333    0.0493
     28 C           5.9381   -1.0382    0.5292 C.ar    4  PHENYL4444   -0.0386
     29 C           7.0038   -0.2382    0.9574 C.ar    4  PHENYL4444   -0.0571
     30 C           7.5372    0.7376    0.1102 C.ar    4  PHENYL4444   -0.0475
     31 C           7.0166    0.9108   -1.1751 C.ar    4  PHENYL4444    0.0179
     32 C           5.9665    0.1003   -1.6141 C.ar    4  PHENYL4444   -0.0475
     33 C           5.4337   -0.8746   -0.7660 C.ar    4  PHENYL4444   -0.0571
     34 H          -4.0062    1.7946   -2.5091 H       1  BENZYL1111    0.0399
     35 H          -6.4146    2.5425   -1.4085 H       1  BENZYL1111    0.0620
     36 H          -7.2542    4.4184   -0.1283 H       1  BENZYL1111    0.0618
     37 H          -5.7524    5.6776    1.3128 H       1  BENZYL1111    0.0618
     38 H          -3.4050    5.0614    1.4344 H       1  BENZYL1111    0.0618
     39 H          -2.5647    3.1936    0.1403 H       1  BENZYL1111    0.0620
     40 H          -5.4035    0.6752    0.7215 H       2  PHENYL2222    0.0620
     41 H          -6.9568   -1.1649    1.0093 H       2  PHENYL2222    0.0618
     42 H          -7.4318   -2.6603   -0.8469 H       2  PHENYL2222    0.0618
     43 H          -6.3434   -2.3084   -2.9918 H       2  PHENYL2222    0.0618
     44 H          -4.7901   -0.4680   -3.2784 H       2  PHENYL2222    0.0620
     45 H          -1.8489    1.6924   -1.4089 H       1  BENZYL1111    0.0326
     46 H          -2.3869    0.1154   -1.9772 H       1  BENZYL1111    0.0326
     47 H          -2.7986   -0.6984    0.1780 H       1  BENZYL1111    0.0815
     48 H          -2.8238    0.9155    0.8562 H       1  BENZYL1111    0.0815
     49 H          -0.5337    1.0857    0.2372 H       3  CYCLOHEXYL3333    0.2033
     50 H          -0.3074   -0.6590   -1.3294 H       3  CYCLOHEXYL3333    0.0815
     51 H          -0.4613   -1.7903   -0.0066 H       3  CYCLOHEXYL3333    0.0815
     52 H           1.9194   -1.4478   -0.5369 H       3  CYCLOHEXYL3333    0.0335
     53 H           1.7195    0.2655   -0.2743 H       3  CYCLOHEXYL3333    0.0335
     54 H           1.3375   -1.8208    1.9315 H       3  CYCLOHEXYL3333    0.0504
     55 H           0.9911    0.1108    3.3409 H       3  CYCLOHEXYL3333    0.0335
     56 H           1.1469    1.1613    1.9605 H       3  CYCLOHEXYL3333    0.0335
     57 H          -1.0290   -0.9184    2.3040 H       3  CYCLOHEXYL3333    0.0815
     58 H          -1.2221    0.8022    2.4777 H       3  CYCLOHEXYL3333    0.0815
     59 H           3.1404    1.1395    2.3486 H       3  CYCLOHEXYL3333    0.0429
     60 H           4.5083    0.6570    1.3595 H       3  CYCLOHEXYL3333    0.0429
     61 H           4.4164    0.1574    3.0194 H       3  CYCLOHEXYL3333    0.0429
     62 H           5.6244   -3.0676    1.1673 H       3  CYCLOHEXYL3333    0.0407
     63 H           5.6457   -1.8931    2.4572 H       3  CYCLOHEXYL3333    0.0407
     64 H           7.3974   -0.3692    1.9024 H       4  PHENYL4444    0.0621
     65 H           8.3167    1.3310    0.4345 H       4  PHENYL4444    0.0629
     66 H           5.5841    0.2215   -2.5650 H       4  PHENYL4444    0.0629
     67 H           4.6640   -1.4772   -1.0967 H       4  PHENYL4444    0.0621
@<TRIPOS>BOND
     1     1     2    1
     2     2     3   ar
     3     2     7   ar
     4     7     6   ar
     5     6     5   ar
     6     5     4   ar
     7     4     3   ar
     8     8     9   ar
     9     8    13   ar
    10    13    12   ar
    11    12    11   ar
    12    11    10   ar
    13    10     9   ar
    14     1     8    1
    15     1    14    1
    16    14    15    1
    17    16    17    1
    18    16    21    1
    19    21    20    1
    20    20    19    1
    21    19    18    1
    22    18    17    1
    23    15    16    1
    24    19    22    1
    25    22    23    1
    26    31    24    1
    27    22    25   am
    28    25    26    2
    29    25    27    1
    30    28    29   ar
    31    33    28   ar
    32    32    33   ar
    33    32    31   ar
    34    31    30   ar
    35    30    29   ar
    36    27    28    1
    37     1    34    1
    38     3    35    1
    39     4    36    1
    40     5    37    1
    41     6    38    1
    42     7    39    1
    43     9    40    1
    44    10    41    1
    45    11    42    1
    46    12    43    1
    47    13    44    1
    48    14    45    1
    49    14    46    1
    50    15    47    1
    51    15    48    1
    52    16    49    1
    53    17    50    1
    54    17    51    1
    55    18    52    1
    56    18    53    1
    57    19    54    1
    58    20    55    1
    59    20    56    1
    60    21    57    1
    61    21    58    1
    62    23    59    1
    63    23    60    1
    64    23    61    1
    65    27    62    1
    66    27    63    1
    67    29    64    1
    68    30    65    1
    69    32    66    1
    70    33    67    1
