@<TRIPOS>MOLECULE
CCR5_41
 77 80 0 0 0
SMALL
GASTEIGER

@<TRIPOS>ATOM
      1 C1         -4.0097    1.4127   -1.5051 C.3     1  BENZYL1111    0.0140
      2 C2         -4.4091    2.6706   -0.7029 C.ar    1  BENZYL1111   -0.0398
      3 C3         -5.7327    3.1155   -0.8181 C.ar    1  BENZYL1111   -0.0580
      4 C4         -6.1862    4.2271   -0.1027 C.ar    1  BENZYL1111   -0.0615
      5 C5         -5.3102    4.9219    0.7340 C.ar    1  BENZYL1111   -0.0617
      6 C6         -3.9823    4.5026    0.8413 C.ar    1  BENZYL1111   -0.0615
      7 C7         -3.5329    3.3909    0.1220 C.ar    1  BENZYL1111   -0.0580
      8 C          -5.0087    0.2620   -1.2862 C.ar    2  PHENYL2222   -0.0398
      9 C          -5.6410    0.0796   -0.0498 C.ar    2  PHENYL2222   -0.0580
     10 C          -6.5469   -0.9686    0.1358 C.ar    2  PHENYL2222   -0.0615
     11 C          -6.8271   -1.8463   -0.9146 C.ar    2  PHENYL2222   -0.0617
     12 C          -6.1984   -1.6724   -2.1502 C.ar    2  PHENYL2222   -0.0615
     13 C          -5.2928   -0.6233   -2.3329 C.ar    2  PHENYL2222   -0.0580
     14 C14        -2.5696    0.8623   -1.2889 C.3     1  BENZYL1111   -0.0017
     15 C15        -2.3722    0.1907    0.1003 C.3     1  BENZYL1111   -0.0310
     16 N16        -0.9430    0.0927    0.5002 N.4     3  CYCLOHEXYL3333    0.2353
     17 C2         -0.0647   -0.6608   -0.4304 C.3     3  CYCLOHEXYL3333   -0.0302
     18 C3          1.4231   -0.4805   -0.0363 C.3     3  CYCLOHEXYL3333    0.0063
     19 C4          1.6610   -0.9186    1.4274 C.3     3  CYCLOHEXYL3333    0.0359
     20 C5          0.6996   -0.1326    2.3591 C.3     3  CYCLOHEXYL3333    0.0063
     21 C6         -0.7690   -0.3431    1.9106 C.3     3  CYCLOHEXYL3333   -0.0302
     22 N22         3.0998   -0.7825    1.7219 N.am    3  CYCLOHEXYL3333   -0.2940
     23 C1          3.7070    0.5021    2.0950 C.3     6  ALLYL6666    0.0329
     24 C2          3.9378    0.5381    3.5852 C.2     6  ALLYL6666   -0.0739
     25 C25         3.8889   -1.8878    1.5813 C.2     3  CYCLOHEXYL3333    0.2204
     26 O26         3.4276   -2.9637    1.2355 O.2     3  CYCLOHEXYL3333   -0.2752
     27 C27         5.3823   -1.8733    1.8168 C.3     3  CYCLOHEXYL3333    0.0493
     28 C           6.1241   -1.1759    0.6672 C.ar    4  PHENYL4444   -0.0385
     29 C           7.2147   -0.3384    0.9291 C.ar    4  PHENYL4444   -0.0563
     30 C           7.8451    0.3468   -0.1137 C.ar    4  PHENYL4444   -0.0366
     31 C           7.3940    0.1961   -1.4277 C.ar    4  PHENYL4444    0.0879
     32 C           6.3368   -0.6762   -1.6984 C.ar    4  PHENYL4444   -0.0366
     33 C           5.7094   -1.3648   -0.6564 C.ar    4  PHENYL4444   -0.0563
     34 S1          8.1911    1.0639   -2.7569 S.O2    5  SULFONYL5555   -0.0059
     35 O           7.2375    1.2673   -3.8297 O.2     5  SULFONYL5555   -0.1696
     36 O           8.9165    2.1989   -2.2207 O.2     5  SULFONYL5555   -0.1696
     37 C3          5.0801    0.9630    4.1397 C.2     6  ALLYL6666   -0.1012
     38 C40         9.3830   -0.1770   -3.2829 C.3     5  SULFONYL5555    0.0596
     39 H          -4.0318    1.7732   -2.5123 H       1  BENZYL1111    0.0399
     40 H          -6.3839    2.6137   -1.4419 H       1  BENZYL1111    0.0620
     41 H          -7.1673    4.5342   -0.1926 H       1  BENZYL1111    0.0618
     42 H          -5.6417    5.7395    1.2693 H       1  BENZYL1111    0.0618
     43 H          -3.3297    5.0157    1.4544 H       1  BENZYL1111    0.0618
     44 H          -2.5465    3.0975    0.1989 H       1  BENZYL1111    0.0620
     45 H          -5.4365    0.7239    0.7300 H       2  PHENYL2222    0.0620
     46 H          -7.0093   -1.0944    1.0498 H       2  PHENYL2222    0.0618
     47 H          -7.4960   -2.6202   -0.7783 H       2  PHENYL2222    0.0618
     48 H          -6.4027   -2.3188   -2.9283 H       2  PHENYL2222    0.0618
     49 H          -4.8298   -0.5004   -3.2470 H       2  PHENYL2222    0.0620
     50 H          -1.8607    1.6548   -1.4085 H       1  BENZYL1111    0.0326
     51 H          -2.4140    0.1023   -2.0258 H       1  BENZYL1111    0.0326
     52 H          -2.8116   -0.7849    0.0939 H       1  BENZYL1111    0.0815
     53 H          -2.8566    0.8154    0.8214 H       1  BENZYL1111    0.0815
     54 H          -0.6124    1.0551    0.4304 H       3  CYCLOHEXYL3333    0.2033
     55 H          -0.2218   -0.3275   -1.4349 H       3  CYCLOHEXYL3333    0.0815
     56 H          -0.3112   -1.7000   -0.3661 H       3  CYCLOHEXYL3333    0.0815
     57 H           2.0477   -1.0475   -0.6945 H       3  CYCLOHEXYL3333    0.0335
     58 H           1.6713    0.5567   -0.1223 H       3  CYCLOHEXYL3333    0.0335
     59 H           1.4248   -1.9480    1.5987 H       3  CYCLOHEXYL3333    0.0504
     60 H           0.8249   -0.4527    3.3724 H       3  CYCLOHEXYL3333    0.0335
     61 H           0.9334    0.9096    2.2955 H       3  CYCLOHEXYL3333    0.0335
     62 H          -1.0417   -1.3726    2.0142 H       3  CYCLOHEXYL3333    0.0815
     63 H          -1.4069    0.2477    2.5342 H       3  CYCLOHEXYL3333    0.0815
     64 H           4.6312    0.6400    1.5738 H       6  ALLYL6666    0.0508
     65 H           3.0431    1.2961    1.8234 H       6  ALLYL6666    0.0508
     66 H           3.1785    0.2198    4.2075 H       6  ALLYL6666    0.0582
     67 H           5.7433   -2.8742    1.9295 H       3  CYCLOHEXYL3333    0.0407
     68 H           5.5702   -1.3219    2.7143 H       3  CYCLOHEXYL3333    0.0407
     69 H           7.5551   -0.2262    1.8969 H       4  PHENYL4444    0.0621
     70 H           8.6460    0.9658    0.0875 H       4  PHENYL4444    0.0637
     71 H           6.0182   -0.8125   -2.6705 H       4  PHENYL4444    0.0637
     72 H           4.9362   -2.0160   -0.8640 H       4  PHENYL4444    0.0621
     73 H           5.8554    1.2867    3.5404 H       6  ALLYL6666    0.0532
     74 H           5.1852    0.9668    5.1663 H       6  ALLYL6666    0.0532
     75 H           9.9580    0.2042   -4.1008 H       5  SULFONYL5555    0.0468
     76 H           8.8792   -1.0758   -3.5714 H       5  SULFONYL5555    0.0468
     77 H          10.0381   -0.4033   -2.4677 H       5  SULFONYL5555    0.0468
@<TRIPOS>BOND
     1     1     2    1
     2     2     3   ar
     3     2     7   ar
     4     7     6   ar
     5     6     5   ar
     6     5     4   ar
     7     4     3   ar
     8     8     9   ar
     9     8    13   ar
    10    13    12   ar
    11    12    11   ar
    12    11    10   ar
    13    10     9   ar
    14     1     8    1
    15     1    14    1
    16    14    15    1
    17    16    17    1
    18    16    21    1
    19    21    20    1
    20    20    19    1
    21    19    18    1
    22    18    17    1
    23    15    16    1
    24    19    22    1
    25    23    24    1
    26    24    37    2
    27    22    25   am
    28    25    26    2
    29    25    27    1
    30    28    29   ar
    31    28    33   ar
    32    33    32   ar
    33    32    31   ar
    34    31    30   ar
    35    30    29   ar
    36    27    28    1
    37    34    35    2
    38    34    36    2
    39    31    34    1
    40    22    23    1
    41    34    38    1
    42     1    39    1
    43     3    40    1
    44     4    41    1
    45     5    42    1
    46     6    43    1
    47     7    44    1
    48     9    45    1
    49    10    46    1
    50    11    47    1
    51    12    48    1
    52    13    49    1
    53    14    50    1
    54    14    51    1
    55    15    52    1
    56    15    53    1
    57    16    54    1
    58    17    55    1
    59    17    56    1
    60    18    57    1
    61    18    58    1
    62    19    59    1
    63    20    60    1
    64    20    61    1
    65    21    62    1
    66    21    63    1
    67    23    64    1
    68    23    65    1
    69    24    66    1
    70    27    67    1
    71    27    68    1
    72    29    69    1
    73    30    70    1
    74    32    71    1
    75    33    72    1
    76    37    73    1
    77    37    74    1
    78    38    75    1
    79    38    76    1
    80    38    77    1
