@<TRIPOS>MOLECULE
CCR5_60
 76 79 0 0 0
SMALL
GASTEIGER

@<TRIPOS>ATOM
      1 C1         -3.9984    1.4046   -1.5024 C.3     1  BENZYL1111    0.0141
      2 C2         -4.4084    2.6683   -0.7150 C.ar    1  BENZYL1111   -0.0398
      3 C3         -5.7257    3.1211   -0.8660 C.ar    1  BENZYL1111   -0.0580
      4 C4         -6.1929    4.2329   -0.1598 C.ar    1  BENZYL1111   -0.0615
      5 C5         -5.3364    4.9201    0.7029 C.ar    1  BENZYL1111   -0.0617
      6 C6         -4.0132    4.4953    0.8427 C.ar    1  BENZYL1111   -0.0615
      7 C7         -3.5495    3.3846    0.1310 C.ar    1  BENZYL1111   -0.0580
      8 C          -4.9984    0.2563   -1.2765 C.ar    2  PHENYL2222   -0.0383
      9 C          -5.6606    0.1048   -0.0519 C.ar    2  PHENYL2222   -0.0382
     10 C          -6.5862   -0.9255    0.1341 C.ar    2  PHENYL2222    0.0595
     11 C          -6.8460   -1.8270   -0.9019 C.ar    2  PHENYL2222    0.0593
     12 C          -6.1751   -1.6936   -2.1199 C.ar    2  PHENYL2222   -0.0417
     13 C          -5.2558   -0.6571   -2.3054 C.ar    2  PHENYL2222   -0.0565
     14 C14        -2.5568    0.8631   -1.2743 C.3     1  BENZYL1111   -0.0017
     15 C15        -2.3651    0.1904    0.1151 C.3     1  BENZYL1111   -0.0310
     16 N16        -0.9364    0.1012    0.5201 N.4     3  CYCLOHEXYL3333    0.2353
     17 C2         -0.0573   -0.6656   -0.3982 C.3     3  CYCLOHEXYL3333   -0.0302
     18 C3          1.4298   -0.4934    0.0017 C.3     3  CYCLOHEXYL3333    0.0063
     19 C4          1.6654   -0.9278    1.4680 C.3     3  CYCLOHEXYL3333    0.0356
     20 C5          0.7037   -0.1309    2.3888 C.3     3  CYCLOHEXYL3333    0.0063
     21 C6         -0.7660   -0.3225    1.9340 C.3     3  CYCLOHEXYL3333   -0.0302
     22 N22         3.1094   -0.8005    1.7454 N.am    3  CYCLOHEXYL3333   -0.2980
     23 C23         3.7134    0.4591    2.2082 C.3     3  CYCLOHEXYL3333    0.0121
     24 C24         3.7975    0.5331    3.7554 C.3     3  CYCLOHEXYL3333   -0.0493
     25 C25         3.8986   -1.8817    1.4689 C.2     3  CYCLOHEXYL3333    0.2201
     26 O26         3.4188   -2.9259    1.0567 O.2     3  CYCLOHEXYL3333   -0.2752
     27 C27         5.4047   -1.8906    1.6126 C.3     3  CYCLOHEXYL3333    0.0493
     28 C           6.0799   -1.1100    0.4747 C.ar    4  PHENYL4444   -0.0385
     29 C           7.1794   -0.2831    0.7341 C.ar    4  PHENYL4444   -0.0563
     30 C           7.7572    0.4674   -0.2939 C.ar    4  PHENYL4444   -0.0366
     31 C           7.2429    0.3957   -1.5911 C.ar    4  PHENYL4444    0.0879
     32 C           6.1721   -0.4599   -1.8623 C.ar    4  PHENYL4444   -0.0366
     33 C           5.5973   -1.2137   -0.8351 C.ar    4  PHENYL4444   -0.0563
     34 S1          7.9827    1.3442   -2.8980 S.O2    5  SULFONYL5555   -0.0059
     35 O           7.0116    1.5352   -3.9574 O.2     5  SULFONYL5555   -0.1696
     36 O           8.6561    2.4953   -2.3294 O.2     5  SULFONYL5555   -0.1696
     37 Cl37       -8.0061   -3.1220   -0.6839 Cl      6  SULFONYL6666   -0.0820
     38 Cl38       -7.4156   -1.0780    1.6703 Cl      2  PHENYL2222   -0.0820
     39 C40         9.2295    0.1808   -3.4714 C.3     5  SULFONYL5555    0.0596
     40 H          -4.0122    1.7518   -2.5144 H       1  BENZYL1111    0.0399
     41 H          -6.3618    2.6251   -1.5097 H       1  BENZYL1111    0.0620
     42 H          -7.1695    4.5456   -0.2757 H       1  BENZYL1111    0.0618
     43 H          -5.6788    5.7363    1.2336 H       1  BENZYL1111    0.0618
     44 H          -3.3747    5.0036    1.4743 H       1  BENZYL1111    0.0618
     45 H          -2.5656    3.0891    0.2293 H       1  BENZYL1111    0.0620
     46 H          -5.4632    0.7602    0.7205 H       2  PHENYL2222    0.0635
     47 H          -6.3586   -2.3619   -2.8846 H       2  PHENYL2222    0.0633
     48 H          -4.7633   -0.5646   -3.2076 H       2  PHENYL2222    0.0621
     49 H          -1.8521    1.6603   -1.3872 H       1  BENZYL1111    0.0326
     50 H          -2.3912    0.1046   -2.0106 H       1  BENZYL1111    0.0326
     51 H          -2.7983   -0.7879    0.1046 H       1  BENZYL1111    0.0815
     52 H          -2.8586    0.8090    0.8353 H       1  BENZYL1111    0.0815
     53 H          -0.6075    1.0635    0.4412 H       3  CYCLOHEXYL3333    0.2033
     54 H          -0.2064   -0.3399   -1.4065 H       3  CYCLOHEXYL3333    0.0815
     55 H          -0.3112   -1.7025   -0.3251 H       3  CYCLOHEXYL3333    0.0815
     56 H           2.0532   -1.0651   -0.6536 H       3  CYCLOHEXYL3333    0.0335
     57 H           1.6814    0.5430   -0.0846 H       3  CYCLOHEXYL3333    0.0335
     58 H           1.4253   -1.9524    1.6615 H       3  CYCLOHEXYL3333    0.0504
     59 H           0.8187   -0.4495    3.4038 H       3  CYCLOHEXYL3333    0.0335
     60 H           0.9491    0.9083    2.3201 H       3  CYCLOHEXYL3333    0.0335
     61 H          -1.0546   -1.3466    2.0474 H       3  CYCLOHEXYL3333    0.0815
     62 H          -1.3936    0.2881    2.5490 H       3  CYCLOHEXYL3333    0.0815
     63 H           3.1503    1.2892    1.8358 H       3  CYCLOHEXYL3333    0.0462
     64 H           4.7132    0.4958    1.8288 H       3  CYCLOHEXYL3333    0.0462
     65 H           2.8112    0.4986    4.1688 H       3  CYCLOHEXYL3333    0.0245
     66 H           4.2943    1.4316    4.0568 H       3  CYCLOHEXYL3333    0.0245
     67 H           4.3600   -0.3020    4.1174 H       3  CYCLOHEXYL3333    0.0245
     68 H           5.7638   -2.8985    1.6266 H       3  CYCLOHEXYL3333    0.0407
     69 H           5.6521   -1.4102    2.5361 H       3  CYCLOHEXYL3333    0.0407
     70 H           7.5654   -0.2273    1.6896 H       4  PHENYL4444    0.0621
     71 H           8.5661    1.0763   -0.0942 H       4  PHENYL4444    0.0637
     72 H           5.8046   -0.5355   -2.8237 H       4  PHENYL4444    0.0637
     73 H           4.8124   -1.8505   -1.0436 H       4  PHENYL4444    0.0621
     74 H           9.7776    0.6150   -4.2813 H       5  SULFONYL5555    0.0468
     75 H           8.7680   -0.7326   -3.7840 H       5  SULFONYL5555    0.0468
     76 H           9.9023   -0.0378   -2.6686 H       5  SULFONYL5555    0.0468
@<TRIPOS>BOND
     1     1     2    1
     2     2     3   ar
     3     2     7   ar
     4     7     6   ar
     5     6     5   ar
     6     5     4   ar
     7     4     3   ar
     8     8     9   ar
     9     8    13   ar
    10    13    12   ar
    11    12    11   ar
    12    11    10   ar
    13    10     9   ar
    14     1     8    1
    15     1    14    1
    16    14    15    1
    17    16    17    1
    18    16    21    1
    19    21    20    1
    20    20    19    1
    21    19    18    1
    22    18    17    1
    23    15    16    1
    24    19    22    1
    25    22    23    1
    26    23    24    1
    27    22    25   am
    28    25    26    2
    29    25    27    1
    30    28    29   ar
    31    28    33   ar
    32    33    32   ar
    33    32    31   ar
    34    31    30   ar
    35    30    29   ar
    36    27    28    1
    37    34    35    2
    38    34    36    2
    39    31    34    1
    40    10    38    1
    41    11    37    1
    42    34    39    1
    43     1    40    1
    44     3    41    1
    45     4    42    1
    46     5    43    1
    47     6    44    1
    48     7    45    1
    49     9    46    1
    50    12    47    1
    51    13    48    1
    52    14    49    1
    53    14    50    1
    54    15    51    1
    55    15    52    1
    56    16    53    1
    57    17    54    1
    58    17    55    1
    59    18    56    1
    60    18    57    1
    61    19    58    1
    62    20    59    1
    63    20    60    1
    64    21    61    1
    65    21    62    1
    66    23    63    1
    67    23    64    1
    68    24    65    1
    69    24    66    1
    70    24    67    1
    71    27    68    1
    72    27    69    1
    73    29    70    1
    74    30    71    1
    75    32    72    1
    76    33    73    1
    77    39    74    1
    78    39    75    1
    79    39    76    1
