@<TRIPOS>MOLECULE
CCR5_20
 81 85 0 0 0
SMALL
GASTEIGER

@<TRIPOS>ATOM
      1 C1         -3.9852    1.4284   -1.4962 C.3     1  BENZYL1111    0.0140
      2 C2         -4.4223    2.6774   -0.6995 C.ar    1  BENZYL1111   -0.0398
      3 C3         -5.7645    3.0690   -0.7914 C.ar    1  BENZYL1111   -0.0580
      4 C4         -6.2507    4.1588   -0.0640 C.ar    1  BENZYL1111   -0.0615
      5 C5         -5.3886    4.8892    0.7565 C.ar    1  BENZYL1111   -0.0617
      6 C6         -4.0408    4.5305    0.8314 C.ar    1  BENZYL1111   -0.0615
      7 C7         -3.5589    3.4411    0.0991 C.ar    1  BENZYL1111   -0.0580
      8 C          -4.9733    0.2626   -1.3088 C.ar    2  PHENYL2222   -0.0398
      9 C          -5.6071    0.0456   -0.0789 C.ar    2  PHENYL2222   -0.0580
     10 C          -6.5042   -1.0145    0.0793 C.ar    2  PHENYL2222   -0.0615
     11 C          -6.7736   -1.8697   -0.9923 C.ar    2  PHENYL2222   -0.0617
     12 C          -6.1427   -1.6617   -2.2215 C.ar    2  PHENYL2222   -0.0615
     13 C          -5.2458   -0.6008   -2.3768 C.ar    2  PHENYL2222   -0.0580
     14 C14        -2.5466    0.8890   -1.2433 C.3     1  BENZYL1111   -0.0017
     15 C15        -2.3624    0.2641    0.1690 C.3     1  BENZYL1111   -0.0310
     16 N16        -0.9247    0.1436    0.5316 N.4     3  CYCLOHEXYL3333    0.2353
     17 C2         -0.1722   -0.8810   -0.2345 C.3     3  CYCLOHEXYL3333   -0.0302
     18 C3          1.3487   -0.7721    0.0406 C.3     3  CYCLOHEXYL3333    0.0063
     19 C4          1.6539   -0.8971    1.5553 C.3     3  CYCLOHEXYL3333    0.0353
     20 C5          0.8296    0.1917    2.2922 C.3     3  CYCLOHEXYL3333    0.0063
     21 C6         -0.6818    0.0323    1.9921 C.3     3  CYCLOHEXYL3333   -0.0302
     22 N22         3.1161   -0.8360    1.7278 N.am    3  CYCLOHEXYL3333   -0.3008
     23 C23         3.8135    0.4011    2.1062 C.3     3  CYCLOHEXYL3333    0.0035
     24 O24         6.7648    2.3053   -2.2629 O.3     4  PHENYL4444   -0.4874
     25 C25         3.8278   -1.9466    1.3748 C.2     3  CYCLOHEXYL3333    0.2199
     26 O26         3.2664   -2.9946    1.0976 O.2     3  CYCLOHEXYL3333   -0.2752
     27 C27         5.3359   -1.9659    1.2712 C.3     3  CYCLOHEXYL3333    0.0493
     28 C           5.7947   -0.8703    0.2990 C.ar    4  PHENYL4444   -0.0384
     29 C           6.8272    0.0135    0.6346 C.ar    4  PHENYL4444   -0.0547
     30 C           7.1559    1.0675   -0.2233 C.ar    4  PHENYL4444   -0.0197
     31 C           6.4682    1.2295   -1.4284 C.ar    4  PHENYL4444    0.1210
     32 C           5.4798    0.3138   -1.7951 C.ar    4  PHENYL4444   -0.0197
     33 C           5.1579   -0.7440   -0.9409 C.ar    4  PHENYL4444   -0.0547
     34 C1          7.7072    2.0035   -3.3053 C.3     5  BENZYL5555    0.1146
     35 C2          7.9329    3.2570   -4.1605 C.ar    5  BENZYL5555   -0.0104
     36 C3          7.9880    4.5154   -3.5504 C.ar    5  BENZYL5555   -0.0554
     37 C4          8.1698    5.6682   -4.3200 C.ar    5  BENZYL5555   -0.0614
     38 C5          8.3069    5.5680   -5.7071 C.ar    5  BENZYL5555   -0.0617
     39 C6          8.2663    4.3130   -6.3208 C.ar    5  BENZYL5555   -0.0614
     40 C7          8.0831    3.1616   -5.5493 C.ar    5  BENZYL5555   -0.0554
     41 H          -3.9841    1.7986   -2.5001 H       1  BENZYL1111    0.0399
     42 H          -6.4051    2.5436   -1.4068 H       1  BENZYL1111    0.0620
     43 H          -7.2458    4.4235   -0.1332 H       1  BENZYL1111    0.0618
     44 H          -5.7448    5.6884    1.3037 H       1  BENZYL1111    0.0618
     45 H          -3.3977    5.0719    1.4299 H       1  BENZYL1111    0.0618
     46 H          -2.5574    3.1966    0.1469 H       1  BENZYL1111    0.0620
     47 H          -5.4103    0.6731    0.7165 H       2  PHENYL2222    0.0620
     48 H          -6.9681   -1.1657    0.9887 H       2  PHENYL2222    0.0618
     49 H          -7.4363   -2.6523   -0.8763 H       2  PHENYL2222    0.0618
     50 H          -6.3389   -2.2916   -3.0151 H       2  PHENYL2222    0.0618
     51 H          -4.7807   -0.4528   -3.2861 H       2  PHENYL2222    0.0620
     52 H          -1.8381    1.6788   -1.3812 H       1  BENZYL1111    0.0326
     53 H          -2.3820    0.1044   -1.9520 H       1  BENZYL1111    0.0326
     54 H          -2.8286   -0.6983    0.2047 H       1  BENZYL1111    0.0815
     55 H          -2.8267    0.9157    0.8794 H       1  BENZYL1111    0.0815
     56 H          -0.5370    1.0403    0.2384 H       3  CYCLOHEXYL3333    0.2033
     57 H          -0.3637   -0.7691   -1.2813 H       3  CYCLOHEXYL3333    0.0815
     58 H          -0.5026   -1.8478    0.0835 H       3  CYCLOHEXYL3333    0.0815
     59 H           1.8732   -1.5309   -0.5016 H       3  CYCLOHEXYL3333    0.0335
     60 H           1.6786    0.1914   -0.2875 H       3  CYCLOHEXYL3333    0.0335
     61 H           1.3554   -1.8279    1.9905 H       3  CYCLOHEXYL3333    0.0504
     62 H           1.0024    0.1315    3.3464 H       3  CYCLOHEXYL3333    0.0335
     63 H           1.1450    1.1513    1.9392 H       3  CYCLOHEXYL3333    0.0335
     64 H          -1.0319   -0.9121    2.3533 H       3  CYCLOHEXYL3333    0.0815
     65 H          -1.2179    0.8116    2.4923 H       3  CYCLOHEXYL3333    0.0815
     66 H           3.0952    1.1562    2.3485 H       3  CYCLOHEXYL3333    0.0429
     67 H           4.4425    0.7313    1.3061 H       3  CYCLOHEXYL3333    0.0429
     68 H           4.4268    0.2114    2.9622 H       3  CYCLOHEXYL3333    0.0429
     69 H           5.6721   -2.9244    0.9349 H       3  CYCLOHEXYL3333    0.0407
     70 H           5.7581   -1.7800    2.2367 H       3  CYCLOHEXYL3333    0.0407
     71 H           7.3469   -0.1132    1.5172 H       4  PHENYL4444    0.0622
     72 H           7.9073    1.7264    0.0340 H       4  PHENYL4444    0.0654
     73 H           4.9876    0.4183   -2.6961 H       4  PHENYL4444    0.0654
     74 H           4.4469   -1.4357   -1.2257 H       4  PHENYL4444    0.0622
     75 H           8.6325    1.6698   -2.8841 H       5  BENZYL5555    0.0748
     76 H           7.3169    1.2198   -3.9205 H       5  BENZYL5555    0.0748
     77 H           7.8938    4.5928   -2.5256 H       5  BENZYL5555    0.0621
     78 H           8.2028    6.5933   -3.8638 H       5  BENZYL5555    0.0618
     79 H           8.4378    6.4185   -6.2768 H       5  BENZYL5555    0.0618
     80 H           8.3717    4.2362   -7.3445 H       5  BENZYL5555    0.0618
     81 H           8.0584    2.2364   -6.0059 H       5  BENZYL5555    0.0621
@<TRIPOS>BOND
     1     1     2    1
     2     2     3   ar
     3     2     7   ar
     4     7     6   ar
     5     6     5   ar
     6     5     4   ar
     7     4     3   ar
     8     8     9   ar
     9     8    13   ar
    10    13    12   ar
    11    12    11   ar
    12    11    10   ar
    13    10     9   ar
    14     1     8    1
    15     1    14    1
    16    14    15    1
    17    16    17    1
    18    16    21    1
    19    21    20    1
    20    20    19    1
    21    19    18    1
    22    18    17    1
    23    15    16    1
    24    19    22    1
    25    22    23    1
    26    31    24    1
    27    22    25   am
    28    25    26    2
    29    25    27    1
    30    28    29   ar
    31    33    28   ar
    32    32    33   ar
    33    32    31   ar
    34    31    30   ar
    35    30    29   ar
    36    27    28    1
    37    34    35    1
    38    35    36   ar
    39    35    40   ar
    40    40    39   ar
    41    39    38   ar
    42    38    37   ar
    43    37    36   ar
    44    24    34    1
    45     1    41    1
    46     3    42    1
    47     4    43    1
    48     5    44    1
    49     6    45    1
    50     7    46    1
    51     9    47    1
    52    10    48    1
    53    11    49    1
    54    12    50    1
    55    13    51    1
    56    14    52    1
    57    14    53    1
    58    15    54    1
    59    15    55    1
    60    16    56    1
    61    17    57    1
    62    17    58    1
    63    18    59    1
    64    18    60    1
    65    19    61    1
    66    20    62    1
    67    20    63    1
    68    21    64    1
    69    21    65    1
    70    23    66    1
    71    23    67    1
    72    23    68    1
    73    27    69    1
    74    27    70    1
    75    29    71    1
    76    30    72    1
    77    32    73    1
    78    33    74    1
    79    34    75    1
    80    34    76    1
    81    36    77    1
    82    37    78    1
    83    38    79    1
    84    39    80    1
    85    40    81    1
