@<TRIPOS>MOLECULE
CCR5_05
 67 70 0 0 0
SMALL
GASTEIGER

@<TRIPOS>ATOM
      1 C1         -3.9969    1.4283   -1.5034 C.3     1  BENZYL1111    0.0140
      2 C2         -4.4295    2.6801   -0.7087 C.ar    1  BENZYL1111   -0.0398
      3 C3         -5.7676    3.0823   -0.8143 C.ar    1  BENZYL1111   -0.0580
      4 C4         -6.2520    4.1770   -0.0930 C.ar    1  BENZYL1111   -0.0615
      5 C5         -5.3930    4.8988    0.7383 C.ar    1  BENZYL1111   -0.0617
      6 C6         -4.0498    4.5272    0.8297 C.ar    1  BENZYL1111   -0.0615
      7 C7         -3.5687    3.4348    0.1012 C.ar    1  BENZYL1111   -0.0580
      8 C          -4.9782    0.2608   -1.2921 C.ar    2  PHENYL2222   -0.0398
      9 C          -5.6074    0.0613   -0.0568 C.ar    2  PHENYL2222   -0.0580
     10 C          -6.5025   -0.9975    0.1206 C.ar    2  PHENYL2222   -0.0615
     11 C          -6.7727   -1.8706   -0.9362 C.ar    2  PHENYL2222   -0.0617
     12 C          -6.1438   -1.6822   -2.1696 C.ar    2  PHENYL2222   -0.0615
     13 C          -5.2498   -0.6219   -2.3444 C.ar    2  PHENYL2222   -0.0580
     14 C14        -2.5504    0.9009   -1.2703 C.3     1  BENZYL1111   -0.0017
     15 C15        -2.3469    0.2647    0.1341 C.3     1  BENZYL1111   -0.0310
     16 N16        -0.9084    0.1655    0.5019 N.4     3  CYCLOHEXYL3333    0.2353
     17 C2         -0.1165   -0.7782   -0.3273 C.3     3  CYCLOHEXYL3333   -0.0302
     18 C3          1.3954   -0.6747   -0.0026 C.3     3  CYCLOHEXYL3333    0.0063
     19 C4          1.6535   -0.9219    1.5037 C.3     3  CYCLOHEXYL3333    0.0353
     20 C5          0.8066    0.0951    2.3119 C.3     3  CYCLOHEXYL3333    0.0063
     21 C6         -0.6943   -0.0491    1.9561 C.3     3  CYCLOHEXYL3333   -0.0302
     22 N22         3.1036   -0.8561    1.7489 N.am    3  CYCLOHEXYL3333   -0.3008
     23 C23         3.7459    0.3858    2.2012 C.3     3  CYCLOHEXYL3333    0.0035
     24 Cl24        7.8706   -0.4522    2.5042 Cl      4  PHENYL4444   -0.0832
     25 C25         3.8372   -1.9701    1.4579 C.2     3  CYCLOHEXYL3333    0.2199
     26 O26         3.2966   -2.9897    1.0598 O.2     3  CYCLOHEXYL3333   -0.2752
     27 C27         5.3412   -2.0446    1.5816 C.3     3  CYCLOHEXYL3333    0.0507
     28 C           6.0267   -1.1135    0.5679 C.ar    4  PHENYL4444   -0.0203
     29 C           7.1483   -0.3454    0.9099 C.ar    4  PHENYL4444    0.0446
     30 C           7.7153    0.5264   -0.0243 C.ar    4  PHENYL4444   -0.0431
     31 C           7.1821    0.6267   -1.3117 C.ar    4  PHENYL4444   -0.0604
     32 C           6.0822   -0.1575   -1.6673 C.ar    4  PHENYL4444   -0.0614
     33 C           5.5156   -1.0291   -0.7333 C.ar    4  PHENYL4444   -0.0567
     34 H          -4.0114    1.7885   -2.5109 H       1  BENZYL1111    0.0399
     35 H          -6.4063    2.5613   -1.4353 H       1  BENZYL1111    0.0620
     36 H          -7.2434    4.4516   -0.1747 H       1  BENZYL1111    0.0618
     37 H          -5.7482    5.7013    1.2814 H       1  BENZYL1111    0.0618
     38 H          -3.4094    5.0613    1.4377 H       1  BENZYL1111    0.0618
     39 H          -2.5700    3.1815    0.1602 H       1  BENZYL1111    0.0620
     40 H          -5.4086    0.7009    0.7284 H       2  PHENYL2222    0.0620
     41 H          -6.9644   -1.1345    1.0333 H       2  PHENYL2222    0.0618
     42 H          -7.4344   -2.6518   -0.8063 H       2  PHENYL2222    0.0618
     43 H          -6.3394   -2.3262   -2.9519 H       2  PHENYL2222    0.0618
     44 H          -4.7861   -0.4886   -3.2567 H       2  PHENYL2222    0.0620
     45 H          -1.8511    1.6991   -1.4074 H       1  BENZYL1111    0.0326
     46 H          -2.3845    0.1251   -1.9883 H       1  BENZYL1111    0.0326
     47 H          -2.7953   -0.7064    0.1603 H       1  BENZYL1111    0.0815
     48 H          -2.8191    0.9051    0.8495 H       1  BENZYL1111    0.0815
     49 H          -0.5344    1.0876    0.2777 H       3  CYCLOHEXYL3333    0.2033
     50 H          -0.2816   -0.5793   -1.3656 H       3  CYCLOHEXYL3333    0.0815
     51 H          -0.4390   -1.7729   -0.1005 H       3  CYCLOHEXYL3333    0.0815
     52 H           1.9452   -1.3808   -0.5891 H       3  CYCLOHEXYL3333    0.0335
     53 H           1.7246    0.3146   -0.2429 H       3  CYCLOHEXYL3333    0.0335
     54 H           1.3457   -1.8946    1.8263 H       3  CYCLOHEXYL3333    0.0504
     55 H           0.9520   -0.0569    3.3610 H       3  CYCLOHEXYL3333    0.0335
     56 H           1.1250    1.0843    2.0569 H       3  CYCLOHEXYL3333    0.0335
     57 H          -1.0475   -1.0184    2.2402 H       3  CYCLOHEXYL3333    0.0815
     58 H          -1.2444    0.6943    2.4943 H       3  CYCLOHEXYL3333    0.0815
     59 H           2.9987    1.1320    2.3737 H       3  CYCLOHEXYL3333    0.0429
     60 H           4.4484    0.7271    1.4699 H       3  CYCLOHEXYL3333    0.0429
     61 H           4.2722    0.1975    3.1136 H       3  CYCLOHEXYL3333    0.0429
     62 H           5.6707   -3.0518    1.4337 H       3  CYCLOHEXYL3333    0.0407
     63 H           5.6118   -1.7239    2.5659 H       3  CYCLOHEXYL3333    0.0407
     64 H           8.5325    1.0992    0.2386 H       4  PHENYL4444    0.0632
     65 H           7.5987    1.2768   -1.9964 H       4  PHENYL4444    0.0618
     66 H           5.6883   -0.0933   -2.6190 H       4  PHENYL4444    0.0618
     67 H           4.7121   -1.6168   -1.0053 H       4  PHENYL4444    0.0621
@<TRIPOS>BOND
     1     1     2    1
     2     2     3   ar
     3     2     7   ar
     4     7     6   ar
     5     6     5   ar
     6     5     4   ar
     7     4     3   ar
     8     8     9   ar
     9     8    13   ar
    10    13    12   ar
    11    12    11   ar
    12    11    10   ar
    13    10     9   ar
    14     1     8    1
    15     1    14    1
    16    14    15    1
    17    16    17    1
    18    16    21    1
    19    21    20    1
    20    20    19    1
    21    19    18    1
    22    18    17    1
    23    15    16    1
    24    19    22    1
    25    22    23    1
    26    29    24    1
    27    22    25   am
    28    25    26    2
    29    25    27    1
    30    29    28   ar
    31    28    33   ar
    32    33    32   ar
    33    32    31   ar
    34    31    30   ar
    35    30    29   ar
    36    27    28    1
    37     1    34    1
    38     3    35    1
    39     4    36    1
    40     5    37    1
    41     6    38    1
    42     7    39    1
    43     9    40    1
    44    10    41    1
    45    11    42    1
    46    12    43    1
    47    13    44    1
    48    14    45    1
    49    14    46    1
    50    15    47    1
    51    15    48    1
    52    16    49    1
    53    17    50    1
    54    17    51    1
    55    18    52    1
    56    18    53    1
    57    19    54    1
    58    20    55    1
    59    20    56    1
    60    21    57    1
    61    21    58    1
    62    23    59    1
    63    23    60    1
    64    23    61    1
    65    27    62    1
    66    27    63    1
    67    30    64    1
    68    31    65    1
    69    32    66    1
    70    33    67    1
