@<TRIPOS>MOLECULE
62
 79 82 0 0 0
SMALL
GASTEIGER

@<TRIPOS>ATOM
      1 C1         -4.0053    1.4191   -1.5043 C.3     1  BENZYL111    0.0140
      2 C2         -4.4177    2.6799   -0.7135 C.ar    1  BENZYL111   -0.0398
      3 C3         -5.7425    3.1176   -0.8422 C.ar    1  BENZYL111   -0.0580
      4 C4         -6.2066    4.2322   -0.1384 C.ar    1  BENZYL111   -0.0615
      5 C5         -5.3404    4.9370    0.7001 C.ar    1  BENZYL111   -0.0617
      6 C6         -4.0117    4.5242    0.8214 C.ar    1  BENZYL111   -0.0615
      7 C7         -3.5515    3.4097    0.1134 C.ar    1  BENZYL111   -0.0580
      8 C          -4.9971    0.2629   -1.2808 C.ar    2  PHENYL222   -0.0398
      9 C          -5.6324    0.0837   -0.0460 C.ar    2  PHENYL222   -0.0575
     10 C          -6.5203   -0.9784    0.1458 C.ar    2  PHENYL222   -0.0498
     11 C          -6.7868   -1.8773   -0.8915 C.ar    2  PHENYL222    0.0548
     12 C          -6.1601   -1.6958   -2.1292 C.ar    2  PHENYL222   -0.0498
     13 C          -5.2720   -0.6331   -2.3204 C.ar    2  PHENYL222   -0.0575
     14 C14        -2.5622    0.8798   -1.2772 C.3     1  BENZYL111   -0.0017
     15 C15        -2.3672    0.2163    0.1163 C.3     1  BENZYL111   -0.0310
     16 N16        -0.9382    0.1199    0.5174 N.4     3  CYCLOHEXYL333    0.2353
     17 C2         -0.0680   -0.6602   -0.3982 C.3     3  CYCLOHEXYL333   -0.0302
     18 C3          1.4214   -0.5018   -0.0011 C.3     3  CYCLOHEXYL333    0.0063
     19 C4          1.6546   -0.9307    1.4672 C.3     3  CYCLOHEXYL333    0.0356
     20 C5          0.7031   -0.1188    2.3851 C.3     3  CYCLOHEXYL333    0.0063
     21 C6         -0.7689   -0.2981    1.9333 C.3     3  CYCLOHEXYL333   -0.0302
     22 N22         3.1000   -0.8168    1.7430 N.am    3  CYCLOHEXYL333   -0.2980
     23 C23         3.7178    0.4408    2.1931 C.3     3  CYCLOHEXYL333    0.0121
     24 C24         3.8053    0.5295    3.7393 C.3     3  CYCLOHEXYL333   -0.0493
     25 C25         3.8772   -1.9093    1.4770 C.2     3  CYCLOHEXYL333    0.2201
     26 O26         3.3858   -2.9525    1.0761 O.2     3  CYCLOHEXYL333   -0.2752
     27 C27         5.3832   -1.9328    1.6191 C.3     3  CYCLOHEXYL333    0.0493
     28 C           6.0647   -1.1706    0.4727 C.ar    4  PHENYL444   -0.0385
     29 C           7.1753   -0.3554    0.7218 C.ar    4  PHENYL444   -0.0563
     30 C           7.7586    0.3798   -0.3142 C.ar    4  PHENYL444   -0.0366
     31 C           7.2385    0.3045   -1.6088 C.ar    4  PHENYL444    0.0879
     32 C           6.1566   -0.5403   -1.8697 C.ar    4  PHENYL444   -0.0366
     33 C           5.5764   -1.2791   -0.8347 C.ar    4  PHENYL444   -0.0563
     34 S1          7.9842    1.2342   -2.9258 S.O2    5  SULFONYL555   -0.0059
     35 O           7.0133    1.4230   -3.9857 O.2     5  SULFONYL555   -0.1696
     36 O           8.6679    2.3851   -2.3690 O.2     5  SULFONYL555   -0.1696
     37 C37        -7.7580   -3.0365   -0.6397 C.3     6  SULFONYL666    0.4174
     38 F38        -7.9618   -3.7767   -1.7628 F       6  SULFONYL666   -0.1659
     39 F39        -7.2465   -3.8389    0.3315 F       6  SULFONYL666   -0.1659
     40 C40         9.2206    0.0550   -3.4896 C.3     5  SULFONYL555    0.0596
     41 F41        -8.9508   -2.5372   -0.2187 F       6  SULFONYL666   -0.1659
     42 H          -4.0248    1.7723   -2.5141 H       1  BENZYL111    0.0399
     43 H          -6.3865    2.6082   -1.4674 H       1  BENZYL111    0.0620
     44 H          -7.1884    4.5341   -0.2382 H       1  BENZYL111    0.0618
     45 H          -5.6797    5.7572    1.2265 H       1  BENZYL111    0.0618
     46 H          -3.3665    5.0442    1.4365 H       1  BENZYL111    0.0618
     47 H          -2.5644    3.1213    0.2002 H       1  BENZYL111    0.0620
     48 H          -5.4438    0.7402    0.7276 H       2  PHENYL222    0.0621
     49 H          -6.9829   -1.1002    1.0602 H       2  PHENYL222    0.0623
     50 H          -6.3542   -2.3491   -2.9042 H       2  PHENYL222    0.0623
     51 H          -4.8146   -0.5081   -3.2370 H       2  PHENYL222    0.0621
     52 H          -1.8582    1.6767   -1.3970 H       1  BENZYL111    0.0326
     53 H          -2.3976    0.1171   -2.0094 H       1  BENZYL111    0.0326
     54 H          -2.8072   -0.7590    0.1152 H       1  BENZYL111    0.0815
     55 H          -2.8523    0.8451    0.8334 H       1  BENZYL111    0.0815
     56 H          -0.6013    1.0788    0.4315 H       3  CYCLOHEXYL333    0.2033
     57 H          -0.2150   -0.3378   -1.4078 H       3  CYCLOHEXYL333    0.0815
     58 H          -0.3325   -1.6940   -0.3197 H       3  CYCLOHEXYL333    0.0815
     59 H           2.0377   -1.0837   -0.6542 H       3  CYCLOHEXYL333    0.0335
     60 H           1.6838    0.5314   -0.0932 H       3  CYCLOHEXYL333    0.0335
     61 H           1.4040   -1.9519    1.6655 H       3  CYCLOHEXYL333    0.0504
     62 H           0.8164   -0.4330    3.4016 H       3  CYCLOHEXYL333    0.0335
     63 H           0.9591    0.9175    2.3107 H       3  CYCLOHEXYL333    0.0335
     64 H          -1.0674   -1.3187    2.0526 H       3  CYCLOHEXYL333    0.0815
     65 H          -1.3891    0.3223    2.5460 H       3  CYCLOHEXYL333    0.0815
     66 H           3.1629    1.2731    1.8134 H       3  CYCLOHEXYL333    0.0462
     67 H           4.7175    0.4629    1.8122 H       3  CYCLOHEXYL333    0.0462
     68 H           2.8194    0.5099    4.1545 H       3  CYCLOHEXYL333    0.0245
     69 H           4.3123    1.4255    4.0309 H       3  CYCLOHEXYL333    0.0245
     70 H           4.3593   -0.3080    4.1089 H       3  CYCLOHEXYL333    0.0245
     71 H           5.7316   -2.9442    1.6425 H       3  CYCLOHEXYL333    0.0407
     72 H           5.6371   -1.4462    2.5376 H       3  CYCLOHEXYL333    0.0407
     73 H           7.5654   -0.2969    1.6754 H       4  PHENYL444    0.0621
     74 H           8.5759    0.9800   -0.1222 H       4  PHENYL444    0.0637
     75 H           5.7849   -0.6190   -2.8292 H       4  PHENYL444    0.0637
     76 H           4.7834   -1.9082   -1.0356 H       4  PHENYL444    0.0621
     77 H           9.7711    0.4768   -4.3044 H       5  SULFONYL555    0.0468
     78 H           8.7512   -0.8575   -3.7927 H       5  SULFONYL555    0.0468
     79 H           9.8927   -0.1614   -2.6856 H       5  SULFONYL555    0.0468
@<TRIPOS>BOND
     1     1     2    1
     2     2     3   ar
     3     2     7   ar
     4     7     6   ar
     5     6     5   ar
     6     5     4   ar
     7     4     3   ar
     8     8     9   ar
     9     8    13   ar
    10    13    12   ar
    11    12    11   ar
    12    11    10   ar
    13    10     9   ar
    14     1     8    1
    15     1    14    1
    16    14    15    1
    17    16    17    1
    18    16    21    1
    19    21    20    1
    20    20    19    1
    21    19    18    1
    22    18    17    1
    23    15    16    1
    24    19    22    1
    25    22    23    1
    26    23    24    1
    27    22    25   am
    28    25    26    2
    29    25    27    1
    30    28    29   ar
    31    28    33   ar
    32    33    32   ar
    33    32    31   ar
    34    31    30   ar
    35    30    29   ar
    36    27    28    1
    37    34    35    2
    38    34    36    2
    39    31    34    1
    40    37    38    1
    41    37    39    1
    42    11    37    1
    43    34    40    1
    44    37    41    1
    45     1    42    1
    46     3    43    1
    47     4    44    1
    48     5    45    1
    49     6    46    1
    50     7    47    1
    51     9    48    1
    52    10    49    1
    53    12    50    1
    54    13    51    1
    55    14    52    1
    56    14    53    1
    57    15    54    1
    58    15    55    1
    59    16    56    1
    60    17    57    1
    61    17    58    1
    62    18    59    1
    63    18    60    1
    64    19    61    1
    65    20    62    1
    66    20    63    1
    67    21    64    1
    68    21    65    1
    69    23    66    1
    70    23    67    1
    71    24    68    1
    72    24    69    1
    73    24    70    1
    74    27    71    1
    75    27    72    1
    76    29    73    1
    77    30    74    1
    78    32    75    1
    79    33    76    1
    80    40    77    1
    81    40    78    1
    82    40    79    1
