@<TRIPOS>MOLECULE
CCR5_53
 77 80 0 0 0
SMALL
GASTEIGER

@<TRIPOS>ATOM
      1 C1         -4.0204    1.4073   -1.5100 C.3     1  BENZYL1111    0.0140
      2 C2         -4.3960    2.6551   -0.6807 C.ar    1  BENZYL1111   -0.0398
      3 C3         -5.7123    3.1243   -0.7824 C.ar    1  BENZYL1111   -0.0580
      4 C4         -6.1453    4.2280   -0.0424 C.ar    1  BENZYL1111   -0.0615
      5 C5         -5.2557    4.8896    0.8067 C.ar    1  BENZYL1111   -0.0617
      6 C6         -3.9348    4.4459    0.9013 C.ar    1  BENZYL1111   -0.0615
      7 C7         -3.5058    3.3428    0.1567 C.ar    1  BENZYL1111   -0.0580
      8 C          -5.0321    0.2661   -1.2988 C.ar    2  PHENYL2222   -0.0398
      9 C          -5.6591    0.0748   -0.0609 C.ar    2  PHENYL2222   -0.0580
     10 C          -6.5816   -0.9606    0.1148 C.ar    2  PHENYL2222   -0.0615
     11 C          -6.8833   -1.8173   -0.9468 C.ar    2  PHENYL2222   -0.0617
     12 C          -6.2577   -1.6365   -2.1830 C.ar    2  PHENYL2222   -0.0615
     13 C          -5.3351   -0.6006   -2.3556 C.ar    2  PHENYL2222   -0.0580
     14 C14        -2.5827    0.8397   -1.3216 C.3     1  BENZYL1111   -0.0017
     15 C15        -2.3755    0.1407    0.0525 C.3     1  BENZYL1111   -0.0310
     16 N16        -0.9436    0.0577    0.4464 N.4     3  CYCLOHEXYL3333    0.2353
     17 C2         -0.0611   -0.6924   -0.4837 C.3     3  CYCLOHEXYL3333   -0.0302
     18 C3          1.4283   -0.4875   -0.1024 C.3     3  CYCLOHEXYL3333    0.0064
     19 C4          1.6754   -0.9080    1.3660 C.3     3  CYCLOHEXYL3333    0.0374
     20 C5          0.7097   -0.1277    2.2961 C.3     3  CYCLOHEXYL3333    0.0064
     21 C6         -0.7582   -0.3622    1.8600 C.3     3  CYCLOHEXYL3333   -0.0302
     22 N22         3.0953   -0.7375    1.7288 N.am    3  CYCLOHEXYL3333   -0.2785
     23 N23         5.1465   -1.7959    2.3205 N.am    3  CYCLOHEXYL3333   -0.2951
     24 C24         6.0293   -2.9570    2.2278 C.3     3  CYCLOHEXYL3333    0.0383
     25 C25         3.8834   -1.8486    1.8305 C.2     3  CYCLOHEXYL3333    0.3030
     26 O26         3.4560   -2.9327    1.4700 O.2     3  CYCLOHEXYL3333   -0.2526
     27 O27         8.8756   -2.3410   -2.7077 O.3     4  PHENYL4444   -0.4951
     28 C           6.7793   -2.8001    0.8996 C.ar    4  PHENYL4444   -0.0300
     29 C           7.8011   -1.8495    0.7938 C.ar    4  PHENYL4444   -0.0536
     30 C           8.4926   -1.6871   -0.4100 C.ar    4  PHENYL4444   -0.0196
     31 C           8.1741   -2.4856   -1.5110 C.ar    4  PHENYL4444    0.1201
     32 C           7.1497   -3.4302   -1.4127 C.ar    4  PHENYL4444   -0.0196
     33 C           6.4506   -3.5848   -0.2117 C.ar    4  PHENYL4444   -0.0536
     34 C34        10.1425   -3.0178   -2.7211 C.3     4  PHENYL4444    0.0788
     35 C1          3.7031    0.5901    1.8848 C.3     5  ALLYL5555    0.0343
     36 C2          4.8444    0.7339    0.9050 C.2     5  ALLYL5555   -0.0739
     37 C3          6.0384    1.2431    1.2330 C.2     5  ALLYL5555   -0.1012
     38 H          -4.0494    1.7826   -2.5116 H       1  BENZYL1111    0.0399
     39 H          -6.3735    2.6467   -1.4146 H       1  BENZYL1111    0.0620
     40 H          -7.1212    4.5536   -0.1234 H       1  BENZYL1111    0.0618
     41 H          -5.5722    5.7009    1.3605 H       1  BENZYL1111    0.0618
     42 H          -3.2722    4.9345    1.5237 H       1  BENZYL1111    0.0618
     43 H          -2.5241    3.0316    0.2241 H       1  BENZYL1111    0.0620
     44 H          -5.4383    0.7031    0.7274 H       2  PHENYL2222    0.0620
     45 H          -7.0404   -1.0924    1.0298 H       2  PHENYL2222    0.0618
     46 H          -7.5657   -2.5808   -0.8184 H       2  PHENYL2222    0.0618
     47 H          -6.4769   -2.2681   -2.9691 H       2  PHENYL2222    0.0618
     48 H          -4.8734   -0.4737   -3.2698 H       2  PHENYL2222    0.0620
     49 H          -1.8678    1.6277   -1.4350 H       1  BENZYL1111    0.0326
     50 H          -2.4428    0.0923   -2.0744 H       1  BENZYL1111    0.0326
     51 H          -2.7990   -0.8415    0.0246 H       1  BENZYL1111    0.0815
     52 H          -2.8705    0.7393    0.7884 H       1  BENZYL1111    0.0815
     53 H          -0.6221    1.0224    0.3671 H       3  CYCLOHEXYL3333    0.2033
     54 H          -0.2303   -0.3710   -1.4902 H       3  CYCLOHEXYL3333    0.0815
     55 H          -0.2924   -1.7343   -0.4074 H       3  CYCLOHEXYL3333    0.0815
     56 H           2.0564   -1.0544   -0.7574 H       3  CYCLOHEXYL3333    0.0335
     57 H           1.6658    0.5509   -0.2036 H       3  CYCLOHEXYL3333    0.0335
     58 H           1.4645   -1.9500    1.4872 H       3  CYCLOHEXYL3333    0.0505
     59 H           0.8462   -0.4367    3.3114 H       3  CYCLOHEXYL3333    0.0335
     60 H           0.9285    0.9170    2.2210 H       3  CYCLOHEXYL3333    0.0335
     61 H          -1.0166   -1.3941    1.9750 H       3  CYCLOHEXYL3333    0.0815
     62 H          -1.4013    0.2247    2.4819 H       3  CYCLOHEXYL3333    0.0815
     63 H           5.4719   -0.9681    2.7425 H       3  CYCLOHEXYL3333    0.1506
     64 H           5.4673   -3.8674    2.2447 H       3  CYCLOHEXYL3333    0.0512
     65 H           6.7038   -3.0054    3.0570 H       3  CYCLOHEXYL3333    0.0512
     66 H           8.0452   -1.2654    1.6088 H       4  PHENYL4444    0.0622
     67 H           9.2382   -0.9775   -0.4854 H       4  PHENYL4444    0.0654
     68 H           6.9084   -4.0150   -2.2280 H       4  PHENYL4444    0.0654
     69 H           5.6903   -4.2793   -0.1445 H       4  PHENYL4444    0.0622
     70 H          10.6203   -2.8627   -3.6658 H       4  PHENYL4444    0.0660
     71 H          10.0056   -4.0639   -2.5425 H       4  PHENYL4444    0.0660
     72 H          10.7618   -2.6204   -1.9443 H       4  PHENYL4444    0.0660
     73 H           2.9729    1.3545    1.7189 H       5  ALLYL5555    0.0508
     74 H           4.0769    0.6938    2.8820 H       5  ALLYL5555    0.0508
     75 H           4.6957    0.4234   -0.0679 H       5  ALLYL5555    0.0582
     76 H           6.2159    1.5618    2.1984 H       5  ALLYL5555    0.0532
     77 H           6.7813    1.3169    0.5205 H       5  ALLYL5555    0.0532
@<TRIPOS>BOND
     1     1     2    1
     2     2     3   ar
     3     2     7   ar
     4     7     6   ar
     5     6     5   ar
     6     5     4   ar
     7     4     3   ar
     8     8     9   ar
     9     8    13   ar
    10    13    12   ar
    11    12    11   ar
    12    11    10   ar
    13    10     9   ar
    14     1     8    1
    15     1    14    1
    16    14    15    1
    17    17    16    1
    18    21    16    1
    19    20    21    1
    20    19    20    1
    21    19    18    1
    22    18    17    1
    23    16    15    1
    24    22    19    1
    25    25    23   am
    26    23    24    1
    27    22    25   am
    28    25    26    2
    29    28    24    1
    30    28    29   ar
    31    28    33   ar
    32    33    32   ar
    33    32    31   ar
    34    31    30   ar
    35    30    29   ar
    36    31    27    1
    37    27    34    1
    38    35    36    1
    39    36    37    2
    40    22    35    1
    41     1    38    1
    42     3    39    1
    43     4    40    1
    44     5    41    1
    45     6    42    1
    46     7    43    1
    47     9    44    1
    48    10    45    1
    49    11    46    1
    50    12    47    1
    51    13    48    1
    52    14    49    1
    53    14    50    1
    54    15    51    1
    55    15    52    1
    56    16    53    1
    57    17    54    1
    58    17    55    1
    59    18    56    1
    60    18    57    1
    61    19    58    1
    62    20    59    1
    63    20    60    1
    64    21    61    1
    65    21    62    1
    66    23    63    1
    67    24    64    1
    68    24    65    1
    69    29    66    1
    70    30    67    1
    71    32    68    1
    72    33    69    1
    73    34    70    1
    74    34    71    1
    75    34    72    1
    76    35    73    1
    77    35    74    1
    78    36    75    1
    79    37    76    1
    80    37    77    1
