@<TRIPOS>MOLECULE
CCR5_55
 76 79 0 0 0
SMALL
GASTEIGER

@<TRIPOS>ATOM
      1 C1         -4.0102    1.3853   -1.5096 C.3     1  BENZYL1111    0.0140
      2 C2         -4.3799    2.6467   -0.6984 C.ar    1  BENZYL1111   -0.0398
      3 C3         -5.6873    3.1339   -0.8261 C.ar    1  BENZYL1111   -0.0580
      4 C4         -6.1148    4.2534   -0.1070 C.ar    1  BENZYL1111   -0.0615
      5 C5         -5.2288    4.9119    0.7483 C.ar    1  BENZYL1111   -0.0617
      6 C6         -3.9170    4.4485    0.8708 C.ar    1  BENZYL1111   -0.0615
      7 C7         -3.4933    3.3297    0.1470 C.ar    1  BENZYL1111   -0.0580
      8 C          -5.0317    0.2550   -1.2878 C.ar    2  PHENYL2222   -0.0398
      9 C          -5.6725    0.0904   -0.0531 C.ar    2  PHENYL2222   -0.0580
     10 C          -6.6044   -0.9349    0.1317 C.ar    2  PHENYL2222   -0.0615
     11 C          -6.9015   -1.8087   -0.9172 C.ar    2  PHENYL2222   -0.0617
     12 C          -6.2619   -1.6550   -2.1499 C.ar    2  PHENYL2222   -0.0615
     13 C          -5.3302   -0.6289   -2.3317 C.ar    2  PHENYL2222   -0.0580
     14 C14        -2.5770    0.8113   -1.3081 C.3     1  BENZYL1111   -0.0017
     15 C15        -2.3841    0.1170    0.0704 C.3     1  BENZYL1111   -0.0310
     16 N16        -0.9571    0.0376    0.4815 N.4     3  CYCLOHEXYL3333    0.2353
     17 C2         -0.0564   -0.6985   -0.4413 C.3     3  CYCLOHEXYL3333   -0.0302
     18 C3          1.4248   -0.4793   -0.0382 C.3     3  CYCLOHEXYL3333    0.0064
     19 C4          1.6672   -0.9070    1.4289 C.3     3  CYCLOHEXYL3333    0.0370
     20 C5          0.6724   -0.1539    2.3526 C.3     3  CYCLOHEXYL3333    0.0064
     21 C6         -0.7864   -0.3990    1.8914 C.3     3  CYCLOHEXYL3333   -0.0302
     22 N22         3.0965   -0.7287    1.7593 N.am    3  CYCLOHEXYL3333   -0.2825
     23 C23         3.6444    0.5825    2.1375 C.3     3  CYCLOHEXYL3333    0.0136
     24 C24         3.7804    0.7261    3.6764 C.3     3  CYCLOHEXYL3333   -0.0492
     25 C25         3.9241   -1.8113    1.6284 C.2     3  CYCLOHEXYL3333    0.3027
     26 O26         3.4759   -2.8477    1.1668 O.2     3  CYCLOHEXYL3333   -0.2526
     27 N27         5.2351   -1.8003    1.9836 N.am    3  CYCLOHEXYL3333   -0.2951
     28 C           6.9134   -2.6752    0.4918 C.ar    4  PHENYL4444   -0.0300
     29 C           8.2074   -2.1499    0.5904 C.ar    4  PHENYL4444   -0.0536
     30 C           8.9514   -1.8889   -0.5639 C.ar    4  PHENYL4444   -0.0196
     31 C           8.4032   -2.1460   -1.8226 C.ar    4  PHENYL4444    0.1201
     32 C           7.1136   -2.6727   -1.9262 C.ar    4  PHENYL4444   -0.0196
     33 C           6.3683   -2.9299   -0.7717 C.ar    4  PHENYL4444   -0.0536
     34 C34         6.0890   -2.9669    1.7518 C.3     3  CYCLOHEXYL3333    0.0383
     35 O35         9.1432   -1.8760   -2.9731 O.3     4  PHENYL4444   -0.4951
     36 C36         8.9015   -0.5686   -3.5164 C.3     4  PHENYL4444    0.0788
     37 H          -4.0325    1.7462   -2.5167 H       1  BENZYL1111    0.0399
     38 H          -6.3460    2.6579   -1.4621 H       1  BENZYL1111    0.0620
     39 H          -7.0841    4.5930   -0.2079 H       1  BENZYL1111    0.0618
     40 H          -5.5412    5.7354    1.2862 H       1  BENZYL1111    0.0618
     41 H          -3.2573    4.9341    1.4985 H       1  BENZYL1111    0.0618
     42 H          -2.5183    3.0032    0.2357 H       1  BENZYL1111    0.0620
     43 H          -5.4549    0.7311    0.7261 H       2  PHENYL2222    0.0620
     44 H          -7.0736   -1.0466    1.0441 H       2  PHENYL2222    0.0618
     45 H          -7.5908   -2.5648   -0.7820 H       2  PHENYL2222    0.0618
     46 H          -6.4775   -2.2994   -2.9266 H       2  PHENYL2222    0.0618
     47 H          -4.8583   -0.5220   -3.2432 H       2  PHENYL2222    0.0620
     48 H          -1.8573    1.5952   -1.4192 H       1  BENZYL1111    0.0326
     49 H          -2.4350    0.0602   -2.0569 H       1  BENZYL1111    0.0326
     50 H          -2.8056   -0.8660    0.0407 H       1  BENZYL1111    0.0815
     51 H          -2.8884    0.7174    0.7985 H       1  BENZYL1111    0.0815
     52 H          -0.6440    1.0060    0.4144 H       3  CYCLOHEXYL3333    0.2033
     53 H          -0.2156   -0.3731   -1.4481 H       3  CYCLOHEXYL3333    0.0815
     54 H          -0.2782   -1.7432   -0.3753 H       3  CYCLOHEXYL3333    0.0815
     55 H           2.0675   -1.0316   -0.6915 H       3  CYCLOHEXYL3333    0.0335
     56 H           1.6458    0.5640   -0.1250 H       3  CYCLOHEXYL3333    0.0335
     57 H           1.4671   -1.9470    1.5817 H       3  CYCLOHEXYL3333    0.0505
     58 H           0.7964   -0.4751    3.3657 H       3  CYCLOHEXYL3333    0.0335
     59 H           0.8777    0.8945    2.2924 H       3  CYCLOHEXYL3333    0.0335
     60 H          -1.0345   -1.4353    1.9889 H       3  CYCLOHEXYL3333    0.0815
     61 H          -1.4448    0.1727    2.5115 H       3  CYCLOHEXYL3333    0.0815
     62 H           3.0200    1.3619    1.7534 H       3  CYCLOHEXYL3333    0.0462
     63 H           4.6237    0.6622    1.7139 H       3  CYCLOHEXYL3333    0.0462
     64 H           2.8138    0.6503    4.1290 H       3  CYCLOHEXYL3333    0.0245
     65 H           4.2321    1.6644    3.9224 H       3  CYCLOHEXYL3333    0.0245
     66 H           4.4057   -0.0582    4.0489 H       3  CYCLOHEXYL3333    0.0245
     67 H           5.6169   -0.9957    2.4033 H       3  CYCLOHEXYL3333    0.1506
     68 H           8.6135   -1.9546    1.5188 H       4  PHENYL4444    0.0622
     69 H           9.9065   -1.5059   -0.4860 H       4  PHENYL4444    0.0654
     70 H           6.7109   -2.8720   -2.8552 H       4  PHENYL4444    0.0654
     71 H           5.4119   -3.3093   -0.8516 H       4  PHENYL4444    0.0622
     72 H           5.4974   -3.8488    1.6211 H       3  CYCLOHEXYL3333    0.0512
     73 H           6.7290   -3.1409    2.5915 H       3  CYCLOHEXYL3333    0.0512
     74 H           9.4991   -0.4301   -4.3931 H       4  PHENYL4444    0.0660
     75 H           9.1303    0.1827   -2.7896 H       4  PHENYL4444    0.0660
     76 H           7.8676   -0.4821   -3.7782 H       4  PHENYL4444    0.0660
@<TRIPOS>BOND
     1     1     2    1
     2     2     3   ar
     3     2     7   ar
     4     7     6   ar
     5     6     5   ar
     6     5     4   ar
     7     4     3   ar
     8     8     9   ar
     9     8    13   ar
    10    13    12   ar
    11    12    11   ar
    12    11    10   ar
    13    10     9   ar
    14     1     8    1
    15     1    14    1
    16    14    15    1
    17    16    17    1
    18    16    21    1
    19    21    20    1
    20    20    19    1
    21    19    18    1
    22    18    17    1
    23    16    15    1
    24    19    22    1
    25    22    23    1
    26    23    24    1
    27    22    25   am
    28    25    26    2
    29    25    27   am
    30    28    29   ar
    31    28    33   ar
    32    33    32   ar
    33    32    31   ar
    34    31    30   ar
    35    30    29   ar
    36    27    34    1
    37    28    34    1
    38    31    35    1
    39    35    36    1
    40     1    37    1
    41     3    38    1
    42     4    39    1
    43     5    40    1
    44     6    41    1
    45     7    42    1
    46     9    43    1
    47    10    44    1
    48    11    45    1
    49    12    46    1
    50    13    47    1
    51    14    48    1
    52    14    49    1
    53    15    50    1
    54    15    51    1
    55    16    52    1
    56    17    53    1
    57    17    54    1
    58    18    55    1
    59    18    56    1
    60    19    57    1
    61    20    58    1
    62    20    59    1
    63    21    60    1
    64    21    61    1
    65    23    62    1
    66    23    63    1
    67    24    64    1
    68    24    65    1
    69    24    66    1
    70    27    67    1
    71    29    68    1
    72    30    69    1
    73    32    70    1
    74    33    71    1
    75    34    72    1
    76    34    73    1
    77    36    74    1
    78    36    75    1
    79    36    76    1
