@<TRIPOS>MOLECULE
CCR5_46
 66 69 0 0 0
SMALL
GASTEIGER

@<TRIPOS>ATOM
      1 C1         -4.0401    1.4792   -1.4963 C.3     1  BENZYL1111    0.0140
      2 C2         -4.4418    2.6814   -0.6140 C.ar    1  BENZYL1111   -0.0398
      3 C3         -5.7780    3.1000   -0.6641 C.ar    1  BENZYL1111   -0.0580
      4 C4         -6.2333    4.1591    0.1260 C.ar    1  BENZYL1111   -0.0615
      5 C5         -5.3473    4.8263    0.9743 C.ar    1  BENZYL1111   -0.0617
      6 C6         -4.0075    4.4338    1.0176 C.ar    1  BENZYL1111   -0.0615
      7 C7         -3.5559    3.3763    0.2220 C.ar    1  BENZYL1111   -0.0580
      8 C          -5.0104    0.2976   -1.3171 C.ar    2  PHENYL2222   -0.0398
      9 C          -5.5998    0.0293   -0.0753 C.ar    2  PHENYL2222   -0.0580
     10 C          -6.4841   -1.0430    0.0731 C.ar    2  PHENYL2222   -0.0615
     11 C          -6.7835   -1.8603   -1.0198 C.ar    2  PHENYL2222   -0.0617
     12 C          -6.1950   -1.6025   -2.2605 C.ar    2  PHENYL2222   -0.0615
     13 C          -5.3117   -0.5289   -2.4063 C.ar    2  PHENYL2222   -0.0580
     14 C14        -2.5840    0.9471   -1.3534 C.3     1  BENZYL1111   -0.0017
     15 C15        -2.3271    0.2077   -0.0090 C.3     1  BENZYL1111   -0.0310
     16 N16        -0.8805    0.1038    0.3229 N.4     3  CYCLOHEXYL3333    0.2353
     17 C2         -0.0540   -0.6390   -0.6624 C.3     3  CYCLOHEXYL3333   -0.0302
     18 C3          1.4503   -0.4699   -0.3300 C.3     3  CYCLOHEXYL3333    0.0064
     19 C4          1.7443   -0.9753    1.1059 C.3     3  CYCLOHEXYL3333    0.0368
     20 C5          0.8513   -0.2033    2.1060 C.3     3  CYCLOHEXYL3333    0.0064
     21 C6         -0.6419   -0.3521    1.7180 C.3     3  CYCLOHEXYL3333   -0.0302
     22 N22         3.1673   -0.8717    1.4737 N.am    3  CYCLOHEXYL3333   -0.2850
     23 C23         3.9532    0.3184    1.1222 C.3     3  CYCLOHEXYL3333    0.0049
     24 Cl24        9.3381    0.3392   -0.6685 Cl      4  PHENYL4444   -0.0820
     25 C25         3.6979   -1.8670    2.2478 C.2     3  CYCLOHEXYL3333    0.3065
     26 O26         2.9226   -2.5968    2.8450 O.2     3  CYCLOHEXYL3333   -0.2523
     27 N27         4.9662   -2.1382    2.4287 N.am    3  CYCLOHEXYL3333   -0.2693
     28 C           5.9789   -1.5849    1.7239 C.ar    4  PHENYL4444    0.0362
     29 C           6.9964   -0.8895    2.3839 C.ar    4  PHENYL4444   -0.0207
     30 C           8.0319   -0.2995    1.6537 C.ar    4  PHENYL4444    0.0610
     31 C           8.0570   -0.4138    0.2600 C.ar    4  PHENYL4444    0.0594
     32 C           7.0556   -1.1328   -0.3986 C.ar    4  PHENYL4444   -0.0402
     33 C           6.0235   -1.7264    0.3335 C.ar    4  PHENYL4444   -0.0390
     34 Cl34        9.2922    0.5821    2.4931 Cl      4  PHENYL4444   -0.0820
     35 H          -4.0967    1.8967   -2.4798 H       1  BENZYL1111    0.0399
     36 H          -6.4372    2.6181   -1.2952 H       1  BENZYL1111    0.0620
     37 H          -7.2232    4.4477    0.0825 H       1  BENZYL1111    0.0618
     38 H          -5.6801    5.6041    1.5653 H       1  BENZYL1111    0.0618
     39 H          -3.3478    4.9266    1.6397 H       1  BENZYL1111    0.0618
     40 H          -2.5607    3.1045    0.2503 H       1  BENZYL1111    0.0620
     41 H          -5.3796    0.6277    0.7362 H       2  PHENYL2222    0.0620
     42 H          -6.9164   -1.2312    0.9911 H       2  PHENYL2222    0.0618
     43 H          -7.4370   -2.6516   -0.9110 H       2  PHENYL2222    0.0618
     44 H          -6.4125   -2.2050   -3.0697 H       2  PHENYL2222    0.0618
     45 H          -4.8781   -0.3440   -3.3244 H       2  PHENYL2222    0.0620
     46 H          -1.8941    1.7588   -1.4537 H       1  BENZYL1111    0.0326
     47 H          -2.4399    0.2288   -2.1332 H       1  BENZYL1111    0.0326
     48 H          -2.7593   -0.7704   -0.0473 H       1  BENZYL1111    0.0815
     49 H          -2.7872    0.7880    0.7633 H       1  BENZYL1111    0.0815
     50 H          -0.5473    1.0655    0.2554 H       3  CYCLOHEXYL3333    0.2033
     51 H          -0.2547   -0.2862   -1.6524 H       3  CYCLOHEXYL3333    0.0815
     52 H          -0.3046   -1.6779   -0.6100 H       3  CYCLOHEXYL3333    0.0815
     53 H           2.0462   -1.0068   -1.0382 H       3  CYCLOHEXYL3333    0.0335
     54 H           1.6989    0.5694   -0.3852 H       3  CYCLOHEXYL3333    0.0335
     55 H           1.5123   -2.0193    1.1410 H       3  CYCLOHEXYL3333    0.0504
     56 H           1.0115   -0.5672    3.0994 H       3  CYCLOHEXYL3333    0.0335
     57 H           1.1135    0.8335    2.0709 H       3  CYCLOHEXYL3333    0.0335
     58 H          -0.9479   -1.3716    1.8267 H       3  CYCLOHEXYL3333    0.0815
     59 H          -1.2205    0.2638    2.3743 H       3  CYCLOHEXYL3333    0.0815
     60 H           3.3609    0.9713    0.5157 H       3  CYCLOHEXYL3333    0.0429
     61 H           4.8430    0.0339    0.6005 H       3  CYCLOHEXYL3333    0.0429
     62 H           4.2357    0.8306    2.0182 H       3  CYCLOHEXYL3333    0.0429
     63 H           5.1989   -2.7914    3.1276 H       3  CYCLOHEXYL3333    0.1564
     64 H           6.9829   -0.8116    3.4129 H       4  PHENYL4444    0.0651
     65 H           7.0783   -1.2255   -1.4262 H       4  PHENYL4444    0.0633
     66 H           5.2933   -2.2699   -0.1528 H       4  PHENYL4444    0.0636
@<TRIPOS>BOND
     1     1     2    1
     2     2     3   ar
     3     2     7   ar
     4     7     6   ar
     5     6     5   ar
     6     5     4   ar
     7     4     3   ar
     8     8     9   ar
     9     8    13   ar
    10    13    12   ar
    11    12    11   ar
    12    11    10   ar
    13    10     9   ar
    14     1     8    1
    15     1    14    1
    16    14    15    1
    17    16    17    1
    18    16    21    1
    19    21    20    1
    20    20    19    1
    21    19    18    1
    22    18    17    1
    23    15    16    1
    24    19    22    1
    25    22    23    1
    26    31    24    1
    27    22    25   am
    28    25    26    2
    29    25    27   am
    30    28    29   ar
    31    33    28   ar
    32    32    33   ar
    33    32    31   ar
    34    31    30   ar
    35    30    29   ar
    36    27    28    1
    37    30    34    1
    38     1    35    1
    39     3    36    1
    40     4    37    1
    41     5    38    1
    42     6    39    1
    43     7    40    1
    44     9    41    1
    45    10    42    1
    46    11    43    1
    47    12    44    1
    48    13    45    1
    49    14    46    1
    50    14    47    1
    51    15    48    1
    52    15    49    1
    53    16    50    1
    54    17    51    1
    55    17    52    1
    56    18    53    1
    57    18    54    1
    58    19    55    1
    59    20    56    1
    60    20    57    1
    61    21    58    1
    62    21    59    1
    63    23    60    1
    64    23    61    1
    65    23    62    1
    66    27    63    1
    67    29    64    1
    68    32    65    1
    69    33    66    1
