@<TRIPOS>MOLECULE
CCR5_26
 72 75 0 0 0
SMALL
GASTEIGER

@<TRIPOS>ATOM
      1 C1         -3.9956    1.4271   -1.5049 C.3     1  BENZYL1111    0.0140
      2 C2         -4.4241    2.6764   -0.7037 C.ar    1  BENZYL1111   -0.0398
      3 C3         -5.7653    3.0728   -0.7894 C.ar    1  BENZYL1111   -0.0580
      4 C4         -6.2449    4.1626   -0.0576 C.ar    1  BENZYL1111   -0.0615
      5 C5         -5.3773    4.8873    0.7622 C.ar    1  BENZYL1111   -0.0617
      6 C6         -4.0306    4.5234    0.8315 C.ar    1  BENZYL1111   -0.0615
      7 C7         -3.5551    3.4349    0.0937 C.ar    1  BENZYL1111   -0.0580
      8 C          -4.9808    0.2611   -1.3023 C.ar    2  PHENYL2222   -0.0398
      9 C          -5.6052    0.0503   -0.0665 C.ar    2  PHENYL2222   -0.0580
     10 C          -6.5018   -1.0085    0.1039 C.ar    2  PHENYL2222   -0.0615
     11 C          -6.7793   -1.8694   -0.9610 C.ar    2  PHENYL2222   -0.0617
     12 C          -6.1566   -1.6686   -2.1956 C.ar    2  PHENYL2222   -0.0615
     13 C          -5.2605   -0.6088   -2.3631 C.ar    2  PHENYL2222   -0.0580
     14 C14        -2.5525    0.8913   -1.2699 C.3     1  BENZYL1111   -0.0017
     15 C15        -2.3516    0.2638    0.1389 C.3     1  BENZYL1111   -0.0310
     16 N16        -0.9124    0.1589    0.5016 N.4     3  CYCLOHEXYL3333    0.2353
     17 C2         -0.1370   -0.8182   -0.3042 C.3     3  CYCLOHEXYL3333   -0.0302
     18 C3          1.3788   -0.7111   -0.0005 C.3     3  CYCLOHEXYL3333    0.0063
     19 C4          1.6527   -0.9100    1.5101 C.3     3  CYCLOHEXYL3333    0.0353
     20 C5          0.8185    0.1351    2.2959 C.3     3  CYCLOHEXYL3333    0.0063
     21 C6         -0.6867   -0.0117    1.9598 C.3     3  CYCLOHEXYL3333   -0.0302
     22 N22         3.1057   -0.8407    1.7366 N.am    3  CYCLOHEXYL3333   -0.3008
     23 C23         3.7546    0.4122    2.1466 C.3     3  CYCLOHEXYL3333    0.0035
     24 N24         8.6362    0.4051   -3.5854 N.3     5  SULFONYL5555   -0.2035
     25 C25         3.8332   -1.9655    1.4733 C.2     3  CYCLOHEXYL3333    0.2199
     26 O26         3.2847   -2.9942    1.1110 O.2     3  CYCLOHEXYL3333   -0.2752
     27 C27         5.3381   -2.0450    1.5847 C.3     3  CYCLOHEXYL3333    0.0493
     28 C           6.0201   -1.1611    0.5300 C.ar    4  PHENYL4444   -0.0385
     29 C           7.1455   -0.3961    0.8584 C.ar    4  PHENYL4444   -0.0563
     30 C           7.7412    0.4313   -0.0982 C.ar    4  PHENYL4444   -0.0351
     31 C           7.2196    0.4962   -1.3932 C.ar    4  PHENYL4444    0.1050
     32 C           6.1099   -0.2825   -1.7304 C.ar    4  PHENYL4444   -0.0351
     33 C           5.5163   -1.1122   -0.7750 C.ar    4  PHENYL4444   -0.0563
     34 S1          7.9674    1.5331   -2.6274 S.O2    5  SULFONYL5555    0.0559
     35 O           6.9180    2.2027   -3.3696 O.2     5  SULFONYL5555   -0.1533
     36 O           9.0336    2.3092   -2.0267 O.2     5  SULFONYL5555   -0.1533
     37 H          -4.0076    1.7941   -2.5099 H       1  BENZYL1111    0.0399
     38 H          -6.4101    2.5510   -1.4035 H       1  BENZYL1111    0.0620
     39 H          -7.2391    4.4315   -0.1230 H       1  BENZYL1111    0.0618
     40 H          -5.7287    5.6862    1.3130 H       1  BENZYL1111    0.0618
     41 H          -3.3836    5.0603    1.4299 H       1  BENZYL1111    0.0618
     42 H          -2.5542    3.1872    0.1365 H       1  BENZYL1111    0.0620
     43 H          -5.4018    0.6814    0.7243 H       2  PHENYL2222    0.0620
     44 H          -6.9593   -1.1545    1.0173 H       2  PHENYL2222    0.0618
     45 H          -7.4418   -2.6508   -0.8361 H       2  PHENYL2222    0.0618
     46 H          -6.3583   -2.3030   -2.9842 H       2  PHENYL2222    0.0618
     47 H          -4.8013   -0.4664   -3.2763 H       2  PHENYL2222    0.0620
     48 H          -1.8478    1.6835   -1.4136 H       1  BENZYL1111    0.0326
     49 H          -2.3929    0.1093   -1.9826 H       1  BENZYL1111    0.0326
     50 H          -2.8058   -0.7044    0.1729 H       1  BENZYL1111    0.0815
     51 H          -2.8193    0.9105    0.8516 H       1  BENZYL1111    0.0815
     52 H          -0.5318    1.0706    0.2481 H       3  CYCLOHEXYL3333    0.2033
     53 H          -0.3136   -0.6543   -1.3467 H       3  CYCLOHEXYL3333    0.0815
     54 H          -0.4625   -1.8028   -0.0405 H       3  CYCLOHEXYL3333    0.0815
     55 H           1.9188   -1.4387   -0.5696 H       3  CYCLOHEXYL3333    0.0335
     56 H           1.7097    0.2681   -0.2771 H       3  CYCLOHEXYL3333    0.0335
     57 H           1.3448   -1.8707    1.8667 H       3  CYCLOHEXYL3333    0.0504
     58 H           0.9738    0.0139    3.3476 H       3  CYCLOHEXYL3333    0.0335
     59 H           1.1390    1.1145    2.0079 H       3  CYCLOHEXYL3333    0.0335
     60 H          -1.0423   -0.9697    2.2770 H       3  CYCLOHEXYL3333    0.0815
     61 H          -1.2283    0.7504    2.4802 H       3  CYCLOHEXYL3333    0.0815
     62 H           3.0107    1.1654    2.3024 H       3  CYCLOHEXYL3333    0.0429
     63 H           4.4524    0.7295    1.4001 H       3  CYCLOHEXYL3333    0.0429
     64 H           4.2874    0.2498    3.0602 H       3  CYCLOHEXYL3333    0.0429
     65 H           9.1161    0.8593   -4.3624 H       5  SULFONYL5555    0.1442
     66 H           7.9196   -0.2305   -3.9360 H       5  SULFONYL5555    0.1442
     67 H           5.6594   -3.0596    1.4740 H       3  CYCLOHEXYL3333    0.0407
     68 H           5.6199   -1.6864    2.5526 H       3  CYCLOHEXYL3333    0.0407
     69 H           7.5376   -0.4431    1.8119 H       4  PHENYL4444    0.0621
     70 H           8.5681    0.9955    0.1525 H       4  PHENYL4444    0.0637
     71 H           5.7272   -0.2450   -2.6881 H       4  PHENYL4444    0.0637
     72 H           4.7023   -1.6918   -1.0331 H       4  PHENYL4444    0.0621
@<TRIPOS>BOND
     1     1     2    1
     2     2     3   ar
     3     2     7   ar
     4     7     6   ar
     5     6     5   ar
     6     5     4   ar
     7     4     3   ar
     8     8     9   ar
     9     8    13   ar
    10    13    12   ar
    11    12    11   ar
    12    11    10   ar
    13    10     9   ar
    14     1     8    1
    15     1    14    1
    16    14    15    1
    17    16    17    1
    18    16    21    1
    19    21    20    1
    20    20    19    1
    21    19    18    1
    22    18    17    1
    23    15    16    1
    24    19    22    1
    25    22    23    1
    26    34    24    1
    27    22    25   am
    28    25    26    2
    29    25    27    1
    30    28    29   ar
    31    28    33   ar
    32    33    32   ar
    33    32    31   ar
    34    31    30   ar
    35    30    29   ar
    36    27    28    1
    37    34    35    2
    38    34    36    2
    39    31    34    1
    40     1    37    1
    41     3    38    1
    42     4    39    1
    43     5    40    1
    44     6    41    1
    45     7    42    1
    46     9    43    1
    47    10    44    1
    48    11    45    1
    49    12    46    1
    50    13    47    1
    51    14    48    1
    52    14    49    1
    53    15    50    1
    54    15    51    1
    55    16    52    1
    56    17    53    1
    57    17    54    1
    58    18    55    1
    59    18    56    1
    60    19    57    1
    61    20    58    1
    62    20    59    1
    63    21    60    1
    64    21    61    1
    65    23    62    1
    66    23    63    1
    67    23    64    1
    68    24    65    1
    69    24    66    1
    70    27    67    1
    71    27    68    1
    72    29    69    1
    73    30    70    1
    74    32    71    1
    75    33    72    1
