@<TRIPOS>MOLECULE
CCR5_75
 84 87 0 0 0
SMALL
GASTEIGER

@<TRIPOS>ATOM
      1 C1         -3.9920    1.3305   -1.5036 C.3     1  BENZYL1111    0.0141
      2 C2         -4.3406    2.5970   -0.6909 C.ar    1  BENZYL1111   -0.0371
      3 C3         -5.6464    3.0948   -0.7954 C.ar    1  BENZYL1111   -0.0578
      4 C4         -6.0561    4.2114   -0.0611 C.ar    1  BENZYL1111   -0.0588
      5 C5         -5.1504    4.8600    0.7811 C.ar    1  BENZYL1111   -0.0264
      6 C6         -3.8386    4.3919    0.8730 C.ar    1  BENZYL1111    0.1237
      7 C7         -3.4339    3.2761    0.1357 C.ar    1  BENZYL1111   -0.0227
      8 C          -5.0539    0.2325   -1.3111 C.ar    2  PHENYL2222   -0.0397
      9 C          -5.7110    0.0680   -0.0857 C.ar    2  PHENYL2222   -0.0562
     10 C          -6.7264   -0.8825    0.0548 C.ar    2  PHENYL2222   -0.0391
     11 C          -7.0567   -1.7237   -1.0119 C.ar    2  PHENYL2222    0.0477
     12 C          -6.3805   -1.5834   -2.2272 C.ar    2  PHENYL2222   -0.0391
     13 C          -5.3832   -0.6153   -2.3747 C.ar    2  PHENYL2222   -0.0562
     14 C14        -2.5772    0.7198   -1.2843 C.3     1  BENZYL1111   -0.0017
     15 C15        -2.3929    0.0649    0.1143 C.3     1  BENZYL1111   -0.0310
     16 N16        -0.9634    0.0039    0.5204 N.4     3  CYCLOHEXYL3333    0.2353
     17 C2         -0.0771   -0.7983   -0.3593 C.3     3  CYCLOHEXYL3333   -0.0302
     18 C3          1.4078   -0.5417    0.0022 C.3     3  CYCLOHEXYL3333    0.0063
     19 C4          1.6818   -0.8641    1.4910 C.3     3  CYCLOHEXYL3333    0.0356
     20 C5          0.6976   -0.0527    2.3753 C.3     3  CYCLOHEXYL3333    0.0063
     21 C6         -0.7688   -0.3287    1.9548 C.3     3  CYCLOHEXYL3333   -0.0302
     22 N22         3.1218   -0.6540    1.7391 N.am    3  CYCLOHEXYL3333   -0.2980
     23 C23         3.6725    0.6586    2.1132 C.3     3  CYCLOHEXYL3333    0.0121
     24 C24         3.7657    0.8401    3.6511 C.3     3  CYCLOHEXYL3333   -0.0493
     25 C25         3.9569   -1.7139    1.5212 C.2     3  CYCLOHEXYL3333    0.2201
     26 O26         3.5214   -2.8007    1.1752 O.2     3  CYCLOHEXYL3333   -0.2752
     27 C27         5.4625   -1.6488    1.6564 C.3     3  CYCLOHEXYL3333    0.0493
     28 C           6.1071   -0.9037    0.4776 C.ar    4  PHENYL4444   -0.0385
     29 C           7.1821   -0.0326    0.6909 C.ar    4  PHENYL4444   -0.0563
     30 C           7.7337    0.6835   -0.3753 C.ar    4  PHENYL4444   -0.0366
     31 C           7.2172    0.5332   -1.6648 C.ar    4  PHENYL4444    0.0879
     32 C           6.1702   -0.3646   -1.8883 C.ar    4  PHENYL4444   -0.0366
     33 C           5.6213   -1.0839   -0.8227 C.ar    4  PHENYL4444   -0.0563
     34 S1          7.9257    1.4367   -3.0202 S.O2    5  SULFONYL5555   -0.0059
     35 O           6.9469    1.5465   -4.0840 O.2     5  SULFONYL5555   -0.1696
     36 O           8.5665    2.6337   -2.5120 O.2     5  SULFONYL5555   -0.1696
     37 S1         -8.1286   -3.8080    0.3192 S.O2    6  SULFONYL6666    0.0403
     38 O          -7.5401   -3.2821    1.5327 O.2     6  SULFONYL6666   -0.1555
     39 O39        -9.4605   -4.3777    0.3586 O.2     6  SULFONYL6666   -0.1555
     40 C40         9.2048    0.2831   -3.5400 C.3     5  SULFONYL5555    0.0596
     41 C41        -7.0058   -5.0425   -0.3530 C.3     6  SULFONYL6666    0.0736
     42 N42        -8.0740   -2.7062   -0.8816 N.pl3   2  PHENYL2222   -0.2209
     43 F43        -2.9691    5.0126    1.6669 F       1  BENZYL1111   -0.2055
     44 H          -3.9838    1.6935   -2.5101 H       1  BENZYL1111    0.0399
     45 H          -6.3175    2.6287   -1.4258 H       1  BENZYL1111    0.0620
     46 H          -7.0257    4.5557   -0.1411 H       1  BENZYL1111    0.0619
     47 H          -5.4490    5.6800    1.3319 H       1  BENZYL1111    0.0646
     48 H          -2.4575    2.9483    0.2001 H       1  BENZYL1111    0.0649
     49 H          -5.4434    0.6536    0.7208 H       2  PHENYL2222    0.0621
     50 H          -7.2342   -0.9636    0.9495 H       2  PHENYL2222    0.0636
     51 H          -6.6192   -2.1986   -3.0207 H       2  PHENYL2222    0.0636
     52 H          -4.8860   -0.5250   -3.2745 H       2  PHENYL2222    0.0621
     53 H          -1.8346    1.4771   -1.4256 H       1  BENZYL1111    0.0326
     54 H          -2.4661   -0.0625   -2.0058 H       1  BENZYL1111    0.0326
     55 H          -2.8110   -0.9200    0.1111 H       1  BENZYL1111    0.0815
     56 H          -2.9048    0.6771    0.8271 H       1  BENZYL1111    0.0815
     57 H          -0.6534    0.9665    0.3873 H       3  CYCLOHEXYL3333    0.2033
     58 H          -0.2546   -0.5511   -1.3851 H       3  CYCLOHEXYL3333    0.0815
     59 H          -0.2932   -1.8359   -0.2123 H       3  CYCLOHEXYL3333    0.0815
     60 H           2.0437   -1.1331   -0.6229 H       3  CYCLOHEXYL3333    0.0335
     61 H           1.6169    0.4952   -0.1594 H       3  CYCLOHEXYL3333    0.0335
     62 H           1.4900   -1.8837    1.7526 H       3  CYCLOHEXYL3333    0.0504
     63 H           0.8374   -0.3043    3.4059 H       3  CYCLOHEXYL3333    0.0335
     64 H           0.8993    0.9893    2.2393 H       3  CYCLOHEXYL3333    0.0335
     65 H          -1.0156   -1.3547    2.1315 H       3  CYCLOHEXYL3333    0.0815
     66 H          -1.4165    0.2887    2.5416 H       3  CYCLOHEXYL3333    0.0815
     67 H           3.0704    1.4368    1.6927 H       3  CYCLOHEXYL3333    0.0462
     68 H           4.6672    0.7125    1.7227 H       3  CYCLOHEXYL3333    0.0462
     69 H           2.7851    0.7915    4.0766 H       3  CYCLOHEXYL3333    0.0245
     70 H           4.2255    1.7772    3.8863 H       3  CYCLOHEXYL3333    0.0245
     71 H           4.3667    0.0560    4.0620 H       3  CYCLOHEXYL3333    0.0245
     72 H           5.8646   -2.6380    1.7249 H       3  CYCLOHEXYL3333    0.0407
     73 H           5.6877   -1.1049    2.5499 H       3  CYCLOHEXYL3333    0.0407
     74 H           7.5695    0.0815    1.6406 H       4  PHENYL4444    0.0621
     75 H           8.5248    1.3251   -0.2095 H       4  PHENYL4444    0.0637
     76 H           5.8010   -0.4971   -2.8428 H       4  PHENYL4444    0.0637
     77 H           4.8536   -1.7515   -0.9957 H       4  PHENYL4444    0.0621
     78 H           9.7379    0.6923   -4.3726 H       5  SULFONYL5555    0.0468
     79 H           8.7696   -0.6578   -3.8050 H       5  SULFONYL5555    0.0468
     80 H           9.8857    0.1245   -2.7300 H       5  SULFONYL5555    0.0468
     81 H          -6.9242   -5.8612    0.3310 H       6  SULFONYL6666    0.0482
     82 H          -6.0431   -4.6103   -0.5301 H       6  SULFONYL6666    0.0482
     83 H          -7.3926   -5.3997   -1.2845 H       6  SULFONYL6666    0.0482
     84 H          -8.7897   -2.7230   -1.5574 H       2  PHENYL2222    0.1733
@<TRIPOS>BOND
     1     1     2    1
     2     2     3   ar
     3     2     7   ar
     4     7     6   ar
     5     6     5   ar
     6     5     4   ar
     7     4     3   ar
     8     8     9   ar
     9     8    13   ar
    10    13    12   ar
    11    12    11   ar
    12    11    10   ar
    13    10     9   ar
    14     8     1    1
    15     1    14    1
    16    14    15    1
    17    16    17    1
    18    16    21    1
    19    21    20    1
    20    20    19    1
    21    19    18    1
    22    18    17    1
    23    15    16    1
    24    19    22    1
    25    22    23    1
    26    23    24    1
    27    22    25   am
    28    25    26    2
    29    25    27    1
    30    28    29   ar
    31    28    33   ar
    32    33    32   ar
    33    32    31   ar
    34    31    30   ar
    35    30    29   ar
    36    27    28    1
    37    34    35    2
    38    34    36    2
    39    31    34    1
    40    37    38    2
    41    37    39    2
    42    11    42    1
    43    34    40    1
    44    37    41    1
    45    37    42    1
    46     6    43    1
    47     1    44    1
    48     3    45    1
    49     4    46    1
    50     5    47    1
    51     7    48    1
    52     9    49    1
    53    10    50    1
    54    12    51    1
    55    13    52    1
    56    14    53    1
    57    14    54    1
    58    15    55    1
    59    15    56    1
    60    16    57    1
    61    17    58    1
    62    17    59    1
    63    18    60    1
    64    18    61    1
    65    19    62    1
    66    20    63    1
    67    20    64    1
    68    21    65    1
    69    21    66    1
    70    23    67    1
    71    23    68    1
    72    24    69    1
    73    24    70    1
    74    24    71    1
    75    27    72    1
    76    27    73    1
    77    29    74    1
    78    30    75    1
    79    32    76    1
    80    33    77    1
    81    40    78    1
    82    40    79    1
    83    40    80    1
    84    41    81    1
    85    41    82    1
    86    41    83    1
    87    42    84    1
