@<TRIPOS>MOLECULE
68
 78 81 0 0 0
SMALL
GASTEIGER

@<TRIPOS>ATOM
      1 C1         -3.9956    1.4016   -1.5047 C.3     1  BENZYL111    0.0140
      2 C2         -4.4103    2.6644   -0.7180 C.ar    1  BENZYL111   -0.0398
      3 C3         -5.7369    3.0969   -0.8470 C.ar    1  BENZYL111   -0.0580
      4 C4         -6.2068    4.2074   -0.1407 C.ar    1  BENZYL111   -0.0615
      5 C5         -5.3441    4.9143    0.6995 C.ar    1  BENZYL111   -0.0617
      6 C6         -4.0125    4.5096    0.8175 C.ar    1  BENZYL111   -0.0615
      7 C7         -3.5463    3.3996    0.1062 C.ar    1  BENZYL111   -0.0580
      8 C          -4.9985    0.2553   -1.2806 C.ar    2  PHENYL222   -0.0397
      9 C          -5.6294    0.0788   -0.0435 C.ar    2  PHENYL222   -0.0563
     10 C          -6.5606   -0.9474    0.1393 C.ar    2  PHENYL222   -0.0408
     11 C          -6.8752   -1.8190   -0.9096 C.ar    2  PHENYL222    0.0246
     12 C          -6.2279   -1.6559   -2.1397 C.ar    2  PHENYL222   -0.0408
     13 C          -5.2951   -0.6307   -2.3220 C.ar    2  PHENYL222   -0.0563
     14 C14        -2.5536    0.8609   -1.2751 C.3     1  BENZYL111   -0.0017
     15 C15        -2.3553    0.2059    0.1216 C.3     1  BENZYL111   -0.0310
     16 N16        -0.9256    0.1098    0.5226 N.4     3  CYCLOHEXYL333    0.2353
     17 C2         -0.0495   -0.6585   -0.3974 C.3     3  CYCLOHEXYL333   -0.0302
     18 C3          1.4384   -0.4929    0.0033 C.3     3  CYCLOHEXYL333    0.0063
     19 C4          1.6729   -0.9289    1.4695 C.3     3  CYCLOHEXYL333    0.0356
     20 C5          0.7130   -0.1310    2.3912 C.3     3  CYCLOHEXYL333    0.0063
     21 C6         -0.7567   -0.3181    1.9355 C.3     3  CYCLOHEXYL333   -0.0302
     22 N22         3.1166   -0.8042    1.7503 N.am    3  CYCLOHEXYL333   -0.2980
     23 C23         3.7223    0.4567    2.2079 C.3     3  CYCLOHEXYL333    0.0121
     24 C24         3.8049    0.5388    3.7548 C.3     3  CYCLOHEXYL333   -0.0493
     25 C25         3.9041   -1.8890    1.4828 C.2     3  CYCLOHEXYL333    0.2201
     26 O26         3.4231   -2.9353    1.0774 O.2     3  CYCLOHEXYL333   -0.2752
     27 C27         5.4099   -1.8996    1.6288 C.3     3  CYCLOHEXYL333    0.0493
     28 C           6.0871   -1.1255    0.4877 C.ar    4  PHENYL444   -0.0385
     29 C           7.1899   -0.3018    0.7433 C.ar    4  PHENYL444   -0.0563
     30 C           7.7684    0.4444   -0.2875 C.ar    4  PHENYL444   -0.0366
     31 C           7.2515    0.3714   -1.5836 C.ar    4  PHENYL444    0.0879
     32 C           6.1778   -0.4817   -1.8511 C.ar    4  PHENYL444   -0.0366
     33 C           5.6025   -1.2315   -0.8212 C.ar    4  PHENYL444   -0.0563
     34 S1          7.9914    1.3150   -2.8939 S.O2    5  SULFONYL555   -0.0059
     35 O           7.0211    1.5002   -3.9550 O.2     5  SULFONYL555   -0.1696
     36 O           8.6631    2.4692   -2.3296 O.2     5  SULFONYL555   -0.1696
     37 ****       -7.7915   -2.8039   -0.7365 N.pl3   6  AMINO666   -0.3580
     38 C40         9.2399    0.1500   -3.4608 C.3     5  SULFONYL555    0.0596
     39 H          -4.0034    1.7477   -2.5172 H       1  BENZYL111    0.0399
     40 H          -6.3779    2.5865   -1.4744 H       1  BENZYL111    0.0620
     41 H          -7.1901    4.5047   -0.2399 H       1  BENZYL111    0.0618
     42 H          -5.6880    5.7302    1.2296 H       1  BENZYL111    0.0618
     43 H          -3.3695    5.0323    1.4326 H       1  BENZYL111    0.0618
     44 H          -2.5567    3.1187    0.1886 H       1  BENZYL111    0.0620
     45 H          -5.4051    0.7117    0.7402 H       2  PHENYL222    0.0621
     46 H          -7.0203   -1.0634    1.0559 H       2  PHENYL222    0.0636
     47 H          -6.4410   -2.2980   -2.9190 H       2  PHENYL222    0.0636
     48 H          -4.8211   -0.5265   -3.2328 H       2  PHENYL222    0.0621
     49 H          -1.8484    1.6556   -1.4018 H       1  BENZYL111    0.0326
     50 H          -2.3932    0.0921   -2.0018 H       1  BENZYL111    0.0326
     51 H          -2.7966   -0.7689    0.1274 H       1  BENZYL111    0.0815
     52 H          -2.8374    0.8409    0.8352 H       1  BENZYL111    0.0815
     53 H          -0.5923    1.0705    0.4426 H       3  CYCLOHEXYL333    0.2033
     54 H          -0.1972   -0.3300   -1.4050 H       3  CYCLOHEXYL333    0.0815
     55 H          -0.3075   -1.6945   -0.3269 H       3  CYCLOHEXYL333    0.0815
     56 H           2.0595   -1.0667   -0.6524 H       3  CYCLOHEXYL333    0.0335
     57 H           1.6938    0.5427   -0.0819 H       3  CYCLOHEXYL333    0.0335
     58 H           1.4309   -1.9537    1.6594 H       3  CYCLOHEXYL333    0.0504
     59 H           0.8268   -0.4516    3.4057 H       3  CYCLOHEXYL333    0.0335
     60 H           0.9611    0.9077    2.3244 H       3  CYCLOHEXYL333    0.0335
     61 H          -1.0476   -1.3418    2.0461 H       3  CYCLOHEXYL333    0.0815
     62 H          -1.3832    0.2922    2.5519 H       3  CYCLOHEXYL333    0.0815
     63 H           3.1612    1.2860    1.8306 H       3  CYCLOHEXYL333    0.0462
     64 H           4.7227    0.4893    1.8298 H       3  CYCLOHEXYL333    0.0462
     65 H           2.8181    0.5086    4.1673 H       3  CYCLOHEXYL333    0.0245
     66 H           4.3033    1.4378    4.0520 H       3  CYCLOHEXYL333    0.0245
     67 H           4.3652   -0.2956    4.1219 H       3  CYCLOHEXYL333    0.0245
     68 H           5.7675   -2.9079    1.6481 H       3  CYCLOHEXYL333    0.0407
     69 H           5.6571   -1.4154    2.5504 H       3  CYCLOHEXYL333    0.0407
     70 H           7.5779   -0.2452    1.6979 H       4  PHENYL444    0.0621
     71 H           8.5797    1.0511   -0.0906 H       4  PHENYL444    0.0637
     72 H           5.8085   -0.5585   -2.8117 H       4  PHENYL444    0.0637
     73 H           4.8158   -1.8670   -1.0271 H       4  PHENYL444    0.0621
     74 H          -8.0065   -3.4124   -1.4800 H       6  AMINO666    0.1423
     75 H          -8.2416   -2.9103    0.1326 H       6  AMINO666    0.1423
     76 H           9.7884    0.5810   -4.2721 H       5  SULFONYL555    0.0468
     77 H           8.7795   -0.7652   -3.7697 H       5  SULFONYL555    0.0468
     78 H           9.9121   -0.0644   -2.6563 H       5  SULFONYL555    0.0468
@<TRIPOS>BOND
     1     1     2    1
     2     2     3   ar
     3     2     7   ar
     4     7     6   ar
     5     6     5   ar
     6     5     4   ar
     7     4     3   ar
     8     8     9   ar
     9     8    13   ar
    10    13    12   ar
    11    12    11   ar
    12    11    10   ar
    13    10     9   ar
    14     1     8    1
    15     1    14    1
    16    14    15    1
    17    16    17    1
    18    16    21    1
    19    21    20    1
    20    20    19    1
    21    19    18    1
    22    18    17    1
    23    15    16    1
    24    19    22    1
    25    22    23    1
    26    23    24    1
    27    22    25   am
    28    25    26    2
    29    25    27    1
    30    28    29   ar
    31    28    33   ar
    32    33    32   ar
    33    32    31   ar
    34    31    30   ar
    35    30    29   ar
    36    27    28    1
    37    34    35    2
    38    34    36    2
    39    31    34    1
    40    11    37    1
    41    34    38    1
    42     1    39    1
    43     3    40    1
    44     4    41    1
    45     5    42    1
    46     6    43    1
    47     7    44    1
    48     9    45    1
    49    10    46    1
    50    12    47    1
    51    13    48    1
    52    14    49    1
    53    14    50    1
    54    15    51    1
    55    15    52    1
    56    16    53    1
    57    17    54    1
    58    17    55    1
    59    18    56    1
    60    18    57    1
    61    19    58    1
    62    20    59    1
    63    20    60    1
    64    21    61    1
    65    21    62    1
    66    23    63    1
    67    23    64    1
    68    24    65    1
    69    24    66    1
    70    24    67    1
    71    27    68    1
    72    27    69    1
    73    29    70    1
    74    30    71    1
    75    32    72    1
    76    33    73    1
    77    37    74    1
    78    37    75    1
    79    38    76    1
    80    38    77    1
    81    38    78    1
