@<TRIPOS>MOLECULE
CCR5_39
 73 77 0 0 0
SMALL
GASTEIGER

@<TRIPOS>ATOM
      1 C1         -3.9858    1.4490   -1.5003 C.3     1  BENZYL1111    0.0140
      2 C2         -4.4356    2.6835   -0.6875 C.ar    1  BENZYL1111   -0.0398
      3 C3         -5.7848    3.0547   -0.7621 C.ar    1  BENZYL1111   -0.0580
      4 C4         -6.2827    4.1240   -0.0126 C.ar    1  BENZYL1111   -0.0615
      5 C5         -5.4256    4.8561    0.8116 C.ar    1  BENZYL1111   -0.0617
      6 C6         -4.0707    4.5215    0.8660 C.ar    1  BENZYL1111   -0.0615
      7 C7         -3.5771    3.4532    0.1108 C.ar    1  BENZYL1111   -0.0580
      8 C          -4.9624    0.2717   -1.3228 C.ar    2  PHENYL2222   -0.0398
      9 C          -5.5873    0.0327   -0.0923 C.ar    2  PHENYL2222   -0.0580
     10 C          -6.4779   -1.0344    0.0559 C.ar    2  PHENYL2222   -0.0615
     11 C          -6.7491   -1.8755   -1.0262 C.ar    2  PHENYL2222   -0.0617
     12 C          -6.1253   -1.6471   -2.2554 C.ar    2  PHENYL2222   -0.0615
     13 C          -5.2347   -0.5795   -2.4005 C.ar    2  PHENYL2222   -0.0580
     14 C14        -2.5405    0.9230   -1.2548 C.3     1  BENZYL1111   -0.0017
     15 C15        -2.3473    0.2961    0.1547 C.3     1  BENZYL1111   -0.0310
     16 N16        -0.9053    0.1774    0.5027 N.4     3  CYCLOHEXYL3333    0.2353
     17 C2         -0.1876   -0.9065   -0.2131 C.3     3  CYCLOHEXYL3333   -0.0302
     18 C3          1.3373   -0.8251    0.0477 C.3     3  CYCLOHEXYL3333    0.0063
     19 C4          1.6544   -0.8906    1.5635 C.3     3  CYCLOHEXYL3333    0.0359
     20 C5          0.8676    0.2468    2.2632 C.3     3  CYCLOHEXYL3333    0.0063
     21 C6         -0.6492    0.1382    1.9639 C.3     3  CYCLOHEXYL3333   -0.0302
     22 N22         3.1206   -0.8508    1.6995 N.am    3  CYCLOHEXYL3333   -0.2947
     23 C23         3.8551    0.4064    1.8519 C.3     3  CYCLOHEXYL3333    0.0264
     24 C24         3.6289    1.2308    3.1416 C.3     3  CYCLOHEXYL3333   -0.0326
     25 C25         3.7995   -2.0087    1.4618 C.2     3  CYCLOHEXYL3333    0.2204
     26 O26         3.2048   -3.0655    1.3206 O.2     3  CYCLOHEXYL3333   -0.2752
     27 C27         5.3039   -2.0948    1.3346 C.3     3  CYCLOHEXYL3333    0.0493
     28 C           5.8988   -1.0296    0.4040 C.ar    4  PHENYL4444   -0.0385
     29 C           7.0670   -0.3431    0.7487 C.ar    4  PHENYL4444   -0.0560
     30 C           7.5790    0.6499   -0.0916 C.ar    4  PHENYL4444   -0.0312
     31 C           6.9474    0.9682   -1.3025 C.ar    4  PHENYL4444    0.1262
     32 C           5.7888    0.2588   -1.6501 C.ar    4  PHENYL4444   -0.0312
     33 C           5.2742   -0.7336   -0.8110 C.ar    4  PHENYL4444   -0.0560
     34 N           7.4458    1.9372   -2.1179 N.pl3   5  NO25555     0.0564
     35 O           6.8704    2.1624   -3.1607 O.2     5  NO25555    -0.1261
     36 O           8.4421    2.5297   -1.7636 O.2     5  NO25555    -0.1261
     37 C37         4.9897    0.5542    2.8929 C.3     3  CYCLOHEXYL3333   -0.0326
     38 H          -3.9891    1.8286   -2.5007 H       1  BENZYL1111    0.0399
     39 H          -6.4218    2.5294   -1.3812 H       1  BENZYL1111    0.0620
     40 H          -7.2828    4.3723   -0.0682 H       1  BENZYL1111    0.0618
     41 H          -5.7907    5.6388    1.3765 H       1  BENZYL1111    0.0618
     42 H          -3.4310    5.0651    1.4662 H       1  BENZYL1111    0.0618
     43 H          -2.5703    3.2288    0.1412 H       1  BENZYL1111    0.0620
     44 H          -5.3887    0.6492    0.7111 H       2  PHENYL2222    0.0620
     45 H          -6.9356   -1.2011    0.9657 H       2  PHENYL2222    0.0618
     46 H          -7.4077   -2.6626   -0.9180 H       2  PHENYL2222    0.0618
     47 H          -6.3222   -2.2670   -3.0567 H       2  PHENYL2222    0.0618
     48 H          -4.7740   -0.4174   -3.3096 H       2  PHENYL2222    0.0620
     49 H          -1.8402    1.7203   -1.3921 H       1  BENZYL1111    0.0326
     50 H          -2.3693    0.1431   -1.9671 H       1  BENZYL1111    0.0326
     51 H          -2.8119   -0.6670    0.1922 H       1  BENZYL1111    0.0815
     52 H          -2.8083    0.9437    0.8709 H       1  BENZYL1111    0.0815
     53 H          -0.5028    1.0486    0.1572 H       3  CYCLOHEXYL3333    0.2033
     54 H          -0.3833   -0.8440   -1.2632 H       3  CYCLOHEXYL3333    0.0815
     55 H          -0.5424   -1.8460    0.1562 H       3  CYCLOHEXYL3333    0.0815
     56 H           1.8379   -1.6201   -0.4644 H       3  CYCLOHEXYL3333    0.0335
     57 H           1.6874    0.1153   -0.3238 H       3  CYCLOHEXYL3333    0.0335
     58 H           1.3374   -1.7896    2.0495 H       3  CYCLOHEXYL3333    0.0504
     59 H           1.0355    0.2117    3.3194 H       3  CYCLOHEXYL3333    0.0335
     60 H           1.2188    1.1822    1.8803 H       3  CYCLOHEXYL3333    0.0335
     61 H          -1.0405   -0.7666    2.3799 H       3  CYCLOHEXYL3333    0.0815
     62 H          -1.1412    0.9751    2.4138 H       3  CYCLOHEXYL3333    0.0815
     63 H           3.7908    0.5796    0.7980 H       3  CYCLOHEXYL3333    0.0500
     64 H           2.9587    0.9286    3.9191 H       3  CYCLOHEXYL3333    0.0284
     65 H           3.3079    2.2289    3.3551 H       3  CYCLOHEXYL3333    0.0284
     66 H           5.5790   -3.0686    0.9868 H       3  CYCLOHEXYL3333    0.0407
     67 H           5.7064   -1.9120    2.3090 H       3  CYCLOHEXYL3333    0.0407
     68 H           7.5545   -0.5709    1.6293 H       4  PHENYL4444    0.0621
     69 H           8.4350    1.1565    0.1834 H       4  PHENYL4444    0.0640
     70 H           5.3091    0.4726   -2.5385 H       4  PHENYL4444    0.0640
     71 H           4.4266   -1.2517   -1.0906 H       4  PHENYL4444    0.0621
     72 H           5.8892    1.1019    2.7037 H       3  CYCLOHEXYL3333    0.0284
     73 H           5.6074   -0.1266    3.4405 H       3  CYCLOHEXYL3333    0.0284
@<TRIPOS>BOND
     1     1     2    1
     2     2     3   ar
     3     2     7   ar
     4     7     6   ar
     5     6     5   ar
     6     5     4   ar
     7     4     3   ar
     8     8     9   ar
     9     8    13   ar
    10    13    12   ar
    11    12    11   ar
    12    11    10   ar
    13    10     9   ar
    14     1     8    1
    15     1    14    1
    16    14    15    1
    17    16    17    1
    18    16    21    1
    19    21    20    1
    20    20    19    1
    21    19    18    1
    22    18    17    1
    23    15    16    1
    24    19    22    1
    25    22    23    1
    26    23    24    1
    27    22    25   am
    28    25    26    2
    29    25    27    1
    30    28    29   ar
    31    28    33   ar
    32    33    32   ar
    33    32    31   ar
    34    31    30   ar
    35    30    29   ar
    36    27    28    1
    37    34    35    2
    38    34    36    2
    39    31    34    1
    40    23    37    1
    41    24    37    1
    42     1    38    1
    43     3    39    1
    44     4    40    1
    45     5    41    1
    46     6    42    1
    47     7    43    1
    48     9    44    1
    49    10    45    1
    50    11    46    1
    51    12    47    1
    52    13    48    1
    53    14    49    1
    54    14    50    1
    55    15    51    1
    56    15    52    1
    57    16    53    1
    58    17    54    1
    59    17    55    1
    60    18    56    1
    61    18    57    1
    62    19    58    1
    63    20    59    1
    64    20    60    1
    65    21    61    1
    66    21    62    1
    67    23    63    1
    68    24    64    1
    69    24    65    1
    70    27    66    1
    71    27    67    1
    72    29    68    1
    73    30    69    1
    74    32    70    1
    75    33    71    1
    76    37    72    1
    77    37    73    1
