@<TRIPOS>MOLECULE
CCR5_10
 67 70 0 0 0
SMALL
GASTEIGER

@<TRIPOS>ATOM
      1 C1         -3.9967    1.4272   -1.5041 C.3     1  BENZYL1111    0.0140
      2 C2         -4.4290    2.6792   -0.7096 C.ar    1  BENZYL1111   -0.0398
      3 C3         -5.7672    3.0811   -0.8141 C.ar    1  BENZYL1111   -0.0580
      4 C4         -6.2514    4.1758   -0.0927 C.ar    1  BENZYL1111   -0.0615
      5 C5         -5.3918    4.8981    0.7376 C.ar    1  BENZYL1111   -0.0617
      6 C6         -4.0483    4.5270    0.8277 C.ar    1  BENZYL1111   -0.0615
      7 C7         -3.5676    3.4347    0.0990 C.ar    1  BENZYL1111   -0.0580
      8 C          -4.9782    0.2599   -1.2924 C.ar    2  PHENYL2222   -0.0398
      9 C          -5.6071    0.0606   -0.0569 C.ar    2  PHENYL2222   -0.0580
     10 C          -6.5025   -0.9980    0.1208 C.ar    2  PHENYL2222   -0.0615
     11 C          -6.7733   -1.8710   -0.9360 C.ar    2  PHENYL2222   -0.0617
     12 C          -6.1447   -1.6828   -2.1695 C.ar    2  PHENYL2222   -0.0615
     13 C          -5.2504   -0.6228   -2.3446 C.ar    2  PHENYL2222   -0.0580
     14 C14        -2.5503    0.8995   -1.2706 C.3     1  BENZYL1111   -0.0017
     15 C15        -2.3468    0.2652    0.1347 C.3     1  BENZYL1111   -0.0310
     16 N16        -0.9083    0.1673    0.5029 N.4     3  CYCLOHEXYL3333    0.2353
     17 C2         -0.1159   -0.7773   -0.3248 C.3     3  CYCLOHEXYL3333   -0.0302
     18 C3          1.3959   -0.6736    0.0010 C.3     3  CYCLOHEXYL3333    0.0063
     19 C4          1.6531   -0.9205    1.5076 C.3     3  CYCLOHEXYL3333    0.0353
     20 C5          0.8064    0.0986    2.3136 C.3     3  CYCLOHEXYL3333    0.0063
     21 C6         -0.6944   -0.0450    1.9574 C.3     3  CYCLOHEXYL3333   -0.0302
     22 N22         3.1036   -0.8576    1.7520 N.am    3  CYCLOHEXYL3333   -0.3008
     23 C23         3.7487    0.3811    2.2088 C.3     3  CYCLOHEXYL3333    0.0035
     24 F24         7.5580   -0.3521    2.1533 F       4  PHENYL4444   -0.2052
     25 C25         3.8354   -1.9697    1.4494 C.2     3  CYCLOHEXYL3333    0.2200
     26 O26         3.2914   -2.9866    1.0491 O.2     3  CYCLOHEXYL3333   -0.2752
     27 C27         5.3401   -2.0472    1.5586 C.3     3  CYCLOHEXYL3333    0.0520
     28 C           6.0049   -1.1131    0.5382 C.ar    4  PHENYL4444   -0.0035
     29 C           7.0855   -0.3055    0.9101 C.ar    4  PHENYL4444    0.1270
     30 C           7.6755    0.5571   -0.0171 C.ar    4  PHENYL4444   -0.0262
     31 C           7.1907    0.6161   -1.3265 C.ar    4  PHENYL4444   -0.0590
     32 C           6.1180   -0.1953   -1.7061 C.ar    4  PHENYL4444   -0.0613
     33 C           5.5319   -1.0612   -0.7782 C.ar    4  PHENYL4444   -0.0554
     34 H          -4.0111    1.7871   -2.5117 H       1  BENZYL1111    0.0399
     35 H          -6.4063    2.5598   -1.4344 H       1  BENZYL1111    0.0620
     36 H          -7.2430    4.4500   -0.1735 H       1  BENZYL1111    0.0618
     37 H          -5.7467    5.7005    1.2809 H       1  BENZYL1111    0.0618
     38 H          -3.4074    5.0614    1.4349 H       1  BENZYL1111    0.0618
     39 H          -2.5687    3.1819    0.1568 H       1  BENZYL1111    0.0620
     40 H          -5.4079    0.7001    0.7282 H       2  PHENYL2222    0.0620
     41 H          -6.9641   -1.1349    1.0336 H       2  PHENYL2222    0.0618
     42 H          -7.4352   -2.6520   -0.8059 H       2  PHENYL2222    0.0618
     43 H          -6.3407   -2.3267   -2.9518 H       2  PHENYL2222    0.0618
     44 H          -4.7869   -0.4897   -3.2570 H       2  PHENYL2222    0.0620
     45 H          -1.8507    1.6972   -1.4089 H       1  BENZYL1111    0.0326
     46 H          -2.3848    0.1227   -1.9876 H       1  BENZYL1111    0.0326
     47 H          -2.7947   -0.7062    0.1620 H       1  BENZYL1111    0.0815
     48 H          -2.8195    0.9062    0.8492 H       1  BENZYL1111    0.0815
     49 H          -0.5346    1.0892    0.2775 H       3  CYCLOHEXYL3333    0.2033
     50 H          -0.2802   -0.5794   -1.3634 H       3  CYCLOHEXYL3333    0.0815
     51 H          -0.4387   -1.7718   -0.0973 H       3  CYCLOHEXYL3333    0.0815
     52 H           1.9461   -1.3798   -0.5850 H       3  CYCLOHEXYL3333    0.0335
     53 H           1.7252    0.3157   -0.2392 H       3  CYCLOHEXYL3333    0.0335
     54 H           1.3443   -1.8921    1.8325 H       3  CYCLOHEXYL3333    0.0504
     55 H           0.9512   -0.0516    3.3631 H       3  CYCLOHEXYL3333    0.0335
     56 H           1.1256    1.0871    2.0569 H       3  CYCLOHEXYL3333    0.0335
     57 H          -1.0485   -1.0135    2.2430 H       3  CYCLOHEXYL3333    0.0815
     58 H          -1.2439    0.6999    2.4941 H       3  CYCLOHEXYL3333    0.0815
     59 H           3.0027    1.1263    2.3906 H       3  CYCLOHEXYL3333    0.0429
     60 H           4.4471    0.7272    1.4757 H       3  CYCLOHEXYL3333    0.0429
     61 H           4.2802    0.1867    3.1169 H       3  CYCLOHEXYL3333    0.0429
     62 H           5.6680   -3.0537    1.4028 H       3  CYCLOHEXYL3333    0.0408
     63 H           5.6256   -1.7346    2.5413 H       3  CYCLOHEXYL3333    0.0408
     64 H           8.4704    1.1515    0.2653 H       4  PHENYL4444    0.0646
     65 H           7.6232    1.2564   -2.0106 H       4  PHENYL4444    0.0618
     66 H           5.7581   -0.1552   -2.6725 H       4  PHENYL4444    0.0618
     67 H           4.7462   -1.6655   -1.0653 H       4  PHENYL4444    0.0621
@<TRIPOS>BOND
     1     1     2    1
     2     2     3   ar
     3     2     7   ar
     4     7     6   ar
     5     6     5   ar
     6     5     4   ar
     7     4     3   ar
     8     8     9   ar
     9     8    13   ar
    10    13    12   ar
    11    12    11   ar
    12    11    10   ar
    13    10     9   ar
    14     1     8    1
    15     1    14    1
    16    14    15    1
    17    16    17    1
    18    16    21    1
    19    21    20    1
    20    20    19    1
    21    19    18    1
    22    18    17    1
    23    15    16    1
    24    19    22    1
    25    22    23    1
    26    29    24    1
    27    22    25   am
    28    25    26    2
    29    25    27    1
    30    29    28   ar
    31    28    33   ar
    32    33    32   ar
    33    32    31   ar
    34    31    30   ar
    35    30    29   ar
    36    27    28    1
    37     1    34    1
    38     3    35    1
    39     4    36    1
    40     5    37    1
    41     6    38    1
    42     7    39    1
    43     9    40    1
    44    10    41    1
    45    11    42    1
    46    12    43    1
    47    13    44    1
    48    14    45    1
    49    14    46    1
    50    15    47    1
    51    15    48    1
    52    16    49    1
    53    17    50    1
    54    17    51    1
    55    18    52    1
    56    18    53    1
    57    19    54    1
    58    20    55    1
    59    20    56    1
    60    21    57    1
    61    21    58    1
    62    23    59    1
    63    23    60    1
    64    23    61    1
    65    27    62    1
    66    27    63    1
    67    30    64    1
    68    31    65    1
    69    32    66    1
    70    33    67    1
