@<TRIPOS>MOLECULE
CCR5_25
 68 71 0 0 0
SMALL
GASTEIGER

@<TRIPOS>ATOM
      1 C1         -3.9965    1.4245   -1.5048 C.3     1  BENZYL1111    0.0140
      2 C2         -4.4228    2.6768   -0.7075 C.ar    1  BENZYL1111   -0.0398
      3 C3         -5.7601    3.0830   -0.8073 C.ar    1  BENZYL1111   -0.0580
      4 C4         -6.2387    4.1779   -0.0826 C.ar    1  BENZYL1111   -0.0615
      5 C5         -5.3743    4.8967    0.7458 C.ar    1  BENZYL1111   -0.0617
      6 C6         -4.0316    4.5216    0.8309 C.ar    1  BENZYL1111   -0.0615
      7 C7         -3.5566    3.4286    0.0995 C.ar    1  BENZYL1111   -0.0580
      8 C          -4.9822    0.2604   -1.2954 C.ar    2  PHENYL2222   -0.0398
      9 C          -5.6110    0.0602   -0.0600 C.ar    2  PHENYL2222   -0.0580
     10 C          -6.5083   -0.9970    0.1163 C.ar    2  PHENYL2222   -0.0615
     11 C          -6.7818   -1.8672   -0.9420 C.ar    2  PHENYL2222   -0.0617
     12 C          -6.1545   -1.6772   -2.1759 C.ar    2  PHENYL2222   -0.0615
     13 C          -5.2581   -0.6188   -2.3495 C.ar    2  PHENYL2222   -0.0580
     14 C14        -2.5527    0.8898   -1.2720 C.3     1  BENZYL1111   -0.0017
     15 C15        -2.3521    0.2544    0.1333 C.3     1  BENZYL1111   -0.0310
     16 N16        -0.9144    0.1535    0.5026 N.4     3  CYCLOHEXYL3333    0.2353
     17 C2         -0.1226   -0.7926   -0.3236 C.3     3  CYCLOHEXYL3333   -0.0302
     18 C3          1.3895   -0.6802   -0.0030 C.3     3  CYCLOHEXYL3333    0.0063
     19 C4          1.6518   -0.9190    1.5038 C.3     3  CYCLOHEXYL3333    0.0353
     20 C5          0.8007    0.0953    2.3114 C.3     3  CYCLOHEXYL3333    0.0063
     21 C6         -0.6999   -0.0567    1.9574 C.3     3  CYCLOHEXYL3333   -0.0302
     22 N22         3.1019   -0.8414    1.7456 N.am    3  CYCLOHEXYL3333   -0.3008
     23 C23         3.7336    0.4070    2.1939 C.3     3  CYCLOHEXYL3333    0.0035
     24 C           7.8079    1.4273   -2.3463 C.1     5  CN5555      0.0992
     25 C25         3.8428   -1.9526    1.4626 C.2     3  CYCLOHEXYL3333    0.2199
     26 O26         3.3085   -2.9764    1.0671 O.2     3  CYCLOHEXYL3333   -0.2752
     27 C27         5.3469   -2.0222    1.5885 C.3     3  CYCLOHEXYL3333    0.0493
     28 C           6.0236   -1.1232    0.5433 C.ar    4  PHENYL4444   -0.0385
     29 C           7.1146   -0.3171    0.8895 C.ar    4  PHENYL4444   -0.0569
     30 C           7.7010    0.5240   -0.0609 C.ar    4  PHENYL4444   -0.0441
     31 C           7.2082    0.5552   -1.3684 C.ar    4  PHENYL4444    0.0518
     32 C           6.1325   -0.2627   -1.7245 C.ar    4  PHENYL4444   -0.0441
     33 C           5.5473   -1.1029   -0.7729 C.ar    4  PHENYL4444   -0.0569
     34 N           8.2898    2.1282   -3.1318 N.1     5  CN5555     -0.1909
     35 H          -4.0103    1.7870   -2.5114 H       1  BENZYL1111    0.0399
     36 H          -6.4027    2.5647   -1.4266 H       1  BENZYL1111    0.0620
     37 H          -7.2298    4.4549   -0.1596 H       1  BENZYL1111    0.0618
     38 H          -5.7251    5.6994    1.2913 H       1  BENZYL1111    0.0618
     39 H          -3.3871    5.0536    1.4364 H       1  BENZYL1111    0.0618
     40 H          -2.5584    3.1725    0.1541 H       1  BENZYL1111    0.0620
     41 H          -5.4103    0.6980    0.7261 H       2  PHENYL2222    0.0620
     42 H          -6.9693   -1.1349    1.0293 H       2  PHENYL2222    0.0618
     43 H          -7.4448   -2.6475   -0.8128 H       2  PHENYL2222    0.0618
     44 H          -6.3531   -2.3186   -2.9596 H       2  PHENYL2222    0.0618
     45 H          -4.7958   -0.4843   -3.2623 H       2  PHENYL2222    0.0620
     46 H          -1.8492    1.6841   -1.4104 H       1  BENZYL1111    0.0326
     47 H          -2.3911    0.1124   -1.9892 H       1  BENZYL1111    0.0326
     48 H          -2.8020   -0.7161    0.1597 H       1  BENZYL1111    0.0815
     49 H          -2.8244    0.8959    0.8477 H       1  BENZYL1111    0.0815
     50 H          -0.5402    1.0750    0.2761 H       3  CYCLOHEXYL3333    0.2033
     51 H          -0.2914   -0.6005   -1.3626 H       3  CYCLOHEXYL3333    0.0815
     52 H          -0.4410   -1.7873   -0.0913 H       3  CYCLOHEXYL3333    0.0815
     53 H           1.9414   -1.3865   -0.5874 H       3  CYCLOHEXYL3333    0.0335
     54 H           1.7136    0.3094   -0.2489 H       3  CYCLOHEXYL3333    0.0335
     55 H           1.3502   -1.8924    1.8299 H       3  CYCLOHEXYL3333    0.0504
     56 H           0.9480   -0.0543    3.3606 H       3  CYCLOHEXYL3333    0.0335
     57 H           1.1140    1.0856    2.0545 H       3  CYCLOHEXYL3333    0.0335
     58 H          -1.0485   -1.0269    2.2438 H       3  CYCLOHEXYL3333    0.0815
     59 H          -1.2538    0.6847    2.4944 H       3  CYCLOHEXYL3333    0.0815
     60 H           2.9805    1.1488    2.3598 H       3  CYCLOHEXYL3333    0.0429
     61 H           4.4365    0.7496    1.4635 H       3  CYCLOHEXYL3333    0.0429
     62 H           4.2577    0.2270    3.1092 H       3  CYCLOHEXYL3333    0.0429
     63 H           5.6780   -3.0330    1.4719 H       3  CYCLOHEXYL3333    0.0407
     64 H           5.6206   -1.6728    2.5621 H       3  CYCLOHEXYL3333    0.0407
     65 H           7.4879   -0.3439    1.8512 H       4  PHENYL4444    0.0621
     66 H           8.4989    1.1227    0.2034 H       4  PHENYL4444    0.0630
     67 H           5.7700   -0.2464   -2.6906 H       4  PHENYL4444    0.0630
     68 H           4.7591   -1.7121   -1.0424 H       4  PHENYL4444    0.0621
@<TRIPOS>BOND
     1     1     2    1
     2     2     3   ar
     3     2     7   ar
     4     7     6   ar
     5     6     5   ar
     6     5     4   ar
     7     4     3   ar
     8     8     9   ar
     9     8    13   ar
    10    13    12   ar
    11    12    11   ar
    12    11    10   ar
    13    10     9   ar
    14     1     8    1
    15     1    14    1
    16    14    15    1
    17    16    17    1
    18    16    21    1
    19    21    20    1
    20    20    19    1
    21    19    18    1
    22    18    17    1
    23    15    16    1
    24    19    22    1
    25    22    23    1
    26    24    34    3
    27    22    25   am
    28    25    26    2
    29    25    27    1
    30    28    29   ar
    31    28    33   ar
    32    33    32   ar
    33    32    31   ar
    34    31    30   ar
    35    30    29   ar
    36    27    28    1
    37    31    24    1
    38     1    35    1
    39     3    36    1
    40     4    37    1
    41     5    38    1
    42     6    39    1
    43     7    40    1
    44     9    41    1
    45    10    42    1
    46    11    43    1
    47    12    44    1
    48    13    45    1
    49    14    46    1
    50    14    47    1
    51    15    48    1
    52    15    49    1
    53    16    50    1
    54    17    51    1
    55    17    52    1
    56    18    53    1
    57    18    54    1
    58    19    55    1
    59    20    56    1
    60    20    57    1
    61    21    58    1
    62    21    59    1
    63    23    60    1
    64    23    61    1
    65    23    62    1
    66    27    63    1
    67    27    64    1
    68    29    65    1
    69    30    66    1
    70    32    67    1
    71    33    68    1
