@<TRIPOS>MOLECULE
CCR5_18
 79 82 0 0 0
SMALL
GASTEIGER

@<TRIPOS>ATOM
      1 C1         -3.9980    1.4386   -1.5066 C.3     1  BENZYL1111    0.0140
      2 C2         -4.4485    2.6861   -0.7148 C.ar    1  BENZYL1111   -0.0398
      3 C3         -5.7971    3.0568   -0.8013 C.ar    1  BENZYL1111   -0.0580
      4 C4         -6.2963    4.1419   -0.0756 C.ar    1  BENZYL1111   -0.0615
      5 C5         -5.4414    4.8880    0.7384 C.ar    1  BENZYL1111   -0.0617
      6 C6         -4.0878    4.5507    0.8071 C.ar    1  BENZYL1111   -0.0615
      7 C7         -3.5926    3.4671    0.0751 C.ar    1  BENZYL1111   -0.0580
      8 C          -4.9649    0.2588   -1.2954 C.ar    2  PHENYL2222   -0.0398
      9 C          -5.5826    0.0457   -0.0566 C.ar    2  PHENYL2222   -0.0580
     10 C          -6.4647   -1.0239    0.1216 C.ar    2  PHENYL2222   -0.0615
     11 C          -6.7337   -1.8938   -0.9381 C.ar    2  PHENYL2222   -0.0617
     12 C          -6.1165   -1.6914   -2.1752 C.ar    2  PHENYL2222   -0.0615
     13 C          -5.2350   -0.6208   -2.3506 C.ar    2  PHENYL2222   -0.0580
     14 C14        -2.5459    0.9284   -1.2684 C.3     1  BENZYL1111   -0.0017
     15 C15        -2.3341    0.3145    0.1446 C.3     1  BENZYL1111   -0.0310
     16 N16        -0.8930    0.2171    0.5037 N.4     3  CYCLOHEXYL3333    0.2353
     17 C2         -0.1158   -0.7574   -0.3036 C.3     3  CYCLOHEXYL3333   -0.0302
     18 C3          1.3992   -0.6814    0.0172 C.3     3  CYCLOHEXYL3333    0.0063
     19 C4          1.6553   -0.8962    1.5299 C.3     3  CYCLOHEXYL3333    0.0353
     20 C5          0.8361    0.1729    2.2988 C.3     3  CYCLOHEXYL3333    0.0063
     21 C6         -0.6705    0.0442    1.9621 C.3     3  CYCLOHEXYL3333   -0.0302
     22 N22         3.1104   -0.9045    1.7643 N.am    3  CYCLOHEXYL3333   -0.3008
     23 C23         3.8485    0.2857    2.2095 C.3     3  CYCLOHEXYL3333    0.0035
     24 O24         7.5587   -0.6204    2.3109 O.3     4  PHENYL4444   -0.4947
     25 C25         3.7864   -2.0393    1.4192 C.2     3  CYCLOHEXYL3333    0.2200
     26 O26         3.1933   -3.0371    1.0410 O.2     3  CYCLOHEXYL3333   -0.2752
     27 C27         5.2934   -2.1513    1.4566 C.3     3  CYCLOHEXYL3333    0.0529
     28 C           5.9423   -1.0736    0.5762 C.ar    4  PHENYL4444    0.0067
     29 C           7.0427   -0.3447    1.0395 C.ar    4  PHENYL4444    0.1274
     30 C           7.6057    0.6394    0.2204 C.ar    4  PHENYL4444    0.0257
     31 C           7.0426    0.9324   -1.0236 C.ar    4  PHENYL4444    0.1650
     32 C           5.9458    0.2023   -1.4964 C.ar    4  PHENYL4444    0.1620
     33 C           5.4189   -0.8201   -0.6969 C.ar    4  PHENYL4444   -0.0092
     34 C34         7.9457    0.4681    3.1677 C.3     4  PHENYL4444    0.0788
     35 O35         7.5920    1.9615   -1.7920 O.3     4  PHENYL4444   -0.4913
     36 C36         6.8068    3.1645   -1.8165 C.3     4  PHENYL4444    0.0790
     37 O37         5.4075    0.5151   -2.7554 O.3     4  PHENYL4444   -0.4914
     38 C38         4.2848   -0.1909   -3.3085 C.3     4  PHENYL4444    0.0790
     39 H          -4.0141    1.7978   -2.5144 H       1  BENZYL1111    0.0399
     40 H          -6.4326    2.5193   -1.4114 H       1  BENZYL1111    0.0620
     41 H          -7.2955    4.3915   -0.1412 H       1  BENZYL1111    0.0618
     42 H          -5.8072    5.6830    1.2853 H       1  BENZYL1111    0.0618
     43 H          -3.4502    5.1038    1.4009 H       1  BENZYL1111    0.0618
     44 H          -2.5868    3.2398    0.1166 H       1  BENZYL1111    0.0620
     45 H          -5.3850    0.6832    0.7306 H       2  PHENYL2222    0.0620
     46 H          -6.9178   -1.1712    1.0370 H       2  PHENYL2222    0.0618
     47 H          -7.3858   -2.6829   -0.8076 H       2  PHENYL2222    0.0618
     48 H          -6.3115   -2.3327   -2.9599 H       2  PHENYL2222    0.0618
     49 H          -4.7795   -0.4776   -3.2655 H       2  PHENYL2222    0.0620
     50 H          -1.8545    1.7312   -1.4181 H       1  BENZYL1111    0.0326
     51 H          -2.3737    0.1440   -1.9755 H       1  BENZYL1111    0.0326
     52 H          -2.7850   -0.6548    0.1898 H       1  BENZYL1111    0.0815
     53 H          -2.7994    0.9678    0.8529 H       1  BENZYL1111    0.0815
     54 H          -0.5125    1.1288    0.2498 H       3  CYCLOHEXYL3333    0.2033
     55 H          -0.2768   -0.5773   -1.3460 H       3  CYCLOHEXYL3333    0.0815
     56 H          -0.4569   -1.7399   -0.0520 H       3  CYCLOHEXYL3333    0.0815
     57 H           1.9312   -1.4149   -0.5519 H       3  CYCLOHEXYL3333    0.0335
     58 H           1.7506    0.2938   -0.2482 H       3  CYCLOHEXYL3333    0.0335
     59 H           1.3176   -1.8418    1.8997 H       3  CYCLOHEXYL3333    0.0504
     60 H           0.9879    0.0647    3.3524 H       3  CYCLOHEXYL3333    0.0335
     61 H           1.1720    1.1430    1.9972 H       3  CYCLOHEXYL3333    0.0335
     62 H          -1.0378   -0.9094    2.2794 H       3  CYCLOHEXYL3333    0.0815
     63 H          -1.2033    0.8128    2.4821 H       3  CYCLOHEXYL3333    0.0815
     64 H           3.1574    1.0708    2.4354 H       3  CYCLOHEXYL3333    0.0429
     65 H           4.5335    0.6021    1.4508 H       3  CYCLOHEXYL3333    0.0429
     66 H           4.4068    0.0445    3.0898 H       3  CYCLOHEXYL3333    0.0429
     67 H           5.5968   -3.1237    1.1290 H       3  CYCLOHEXYL3333    0.0408
     68 H           5.6178   -2.0032    2.4654 H       3  CYCLOHEXYL3333    0.0408
     69 H           8.4430    1.1526    0.5375 H       4  PHENYL4444    0.0692
     70 H           4.6364   -1.3926   -1.0504 H       4  PHENYL4444    0.0659
     71 H           8.3157    0.0797    4.0935 H       4  PHENYL4444    0.0660
     72 H           7.1120    1.1151    3.3442 H       4  PHENYL4444    0.0660
     73 H           8.7179    1.0343    2.6901 H       4  PHENYL4444    0.0660
     74 H           7.2955    3.8977   -2.4235 H       4  PHENYL4444    0.0660
     75 H           6.6697    3.5377   -0.8231 H       4  PHENYL4444    0.0660
     76 H           5.8448    2.9483   -2.2322 H       4  PHENYL4444    0.0660
     77 H           4.0473    0.2134   -4.2703 H       4  PHENYL4444    0.0660
     78 H           3.4406   -0.1140   -2.6556 H       4  PHENYL4444    0.0660
     79 H           4.5372   -1.2253   -3.4143 H       4  PHENYL4444    0.0660
@<TRIPOS>BOND
     1     1     2    1
     2     2     3   ar
     3     2     7   ar
     4     7     6   ar
     5     6     5   ar
     6     5     4   ar
     7     4     3   ar
     8     8     9   ar
     9     8    13   ar
    10    13    12   ar
    11    12    11   ar
    12    11    10   ar
    13    10     9   ar
    14     1     8    1
    15     1    14    1
    16    14    15    1
    17    16    17    1
    18    16    21    1
    19    21    20    1
    20    20    19    1
    21    19    18    1
    22    18    17    1
    23    15    16    1
    24    19    22    1
    25    22    23    1
    26    29    24    1
    27    22    25   am
    28    25    26    2
    29    25    27    1
    30    29    28   ar
    31    28    33   ar
    32    33    32   ar
    33    32    31   ar
    34    31    30   ar
    35    30    29   ar
    36    27    28    1
    37    24    34    1
    38    31    35    1
    39    35    36    1
    40    32    37    1
    41    37    38    1
    42     1    39    1
    43     3    40    1
    44     4    41    1
    45     5    42    1
    46     6    43    1
    47     7    44    1
    48     9    45    1
    49    10    46    1
    50    11    47    1
    51    12    48    1
    52    13    49    1
    53    14    50    1
    54    14    51    1
    55    15    52    1
    56    15    53    1
    57    16    54    1
    58    17    55    1
    59    17    56    1
    60    18    57    1
    61    18    58    1
    62    19    59    1
    63    20    60    1
    64    20    61    1
    65    21    62    1
    66    21    63    1
    67    23    64    1
    68    23    65    1
    69    23    66    1
    70    27    67    1
    71    27    68    1
    72    30    69    1
    73    33    70    1
    74    34    71    1
    75    34    72    1
    76    34    73    1
    77    36    74    1
    78    36    75    1
    79    36    76    1
    80    38    77    1
    81    38    78    1
    82    38    79    1
