@<TRIPOS>MOLECULE
CCR5_28
 71 74 0 0 0
SMALL
GASTEIGER

@<TRIPOS>ATOM
      1 C1         -3.9977    1.4242   -1.5075 C.3     1  BENZYL1111    0.0140
      2 C2         -4.4299    2.6722   -0.7061 C.ar    1  BENZYL1111   -0.0398
      3 C3         -5.7733    3.0623   -0.7875 C.ar    1  BENZYL1111   -0.0580
      4 C4         -6.2559    4.1493   -0.0532 C.ar    1  BENZYL1111   -0.0615
      5 C5         -5.3892    4.8779    0.7640 C.ar    1  BENZYL1111   -0.0617
      6 C6         -4.0403    4.5213    0.8278 C.ar    1  BENZYL1111   -0.0615
      7 C7         -3.5618    3.4357    0.0877 C.ar    1  BENZYL1111   -0.0580
      8 C          -4.9799    0.2556   -1.3052 C.ar    2  PHENYL2222   -0.0398
      9 C          -5.6025    0.0419   -0.0689 C.ar    2  PHENYL2222   -0.0580
     10 C          -6.4978   -1.0181    0.1008 C.ar    2  PHENYL2222   -0.0615
     11 C          -6.7761   -1.8772   -0.9653 C.ar    2  PHENYL2222   -0.0617
     12 C          -6.1547   -1.6740   -2.2002 C.ar    2  PHENYL2222   -0.0615
     13 C          -5.2595   -0.6133   -2.3669 C.ar    2  PHENYL2222   -0.0580
     14 C14        -2.5529    0.8931   -1.2718 C.3     1  BENZYL1111   -0.0017
     15 C15        -2.3492    0.2729    0.1396 C.3     1  BENZYL1111   -0.0310
     16 N16        -0.9092    0.1823    0.5026 N.4     3  CYCLOHEXYL3333    0.2353
     17 C2         -0.1267   -0.7984   -0.2919 C.3     3  CYCLOHEXYL3333   -0.0302
     18 C3          1.3893   -0.6940    0.0169 C.3     3  CYCLOHEXYL3333    0.0063
     19 C4          1.6573   -0.8752    1.5319 C.3     3  CYCLOHEXYL3333    0.0353
     20 C5          0.8257    0.1948    2.2865 C.3     3  CYCLOHEXYL3333    0.0063
     21 C6         -0.6807    0.0356    1.9626 C.3     3  CYCLOHEXYL3333   -0.0302
     22 N22         3.1138   -0.8608    1.7583 N.am    3  CYCLOHEXYL3333   -0.3008
     23 C23         3.8427    0.3486    2.1652 C.3     3  CYCLOHEXYL3333    0.0035
     24 S24         7.8506    2.1444   -2.0965 S.3     4  PHENYL4444   -0.1286
     25 C25         3.8010   -1.9972    1.4416 C.2     3  CYCLOHEXYL3333    0.2199
     26 O26         3.2182   -3.0092    1.0855 O.2     3  CYCLOHEXYL3333   -0.2752
     27 C27         5.3083   -2.0984    1.4920 C.3     3  CYCLOHEXYL3333    0.0493
     28 C           5.9672   -1.0407    0.5964 C.ar    4  PHENYL4444   -0.0386
     29 C           7.0178   -0.2467    1.0712 C.ar    4  PHENYL4444   -0.0571
     30 C           7.5849    0.7341    0.2527 C.ar    4  PHENYL4444   -0.0481
     31 C           7.1165    0.9144   -1.0512 C.ar    4  PHENYL4444    0.0076
     32 C           6.0799    0.1128   -1.5357 C.ar    4  PHENYL4444   -0.0481
     33 C           5.5089   -0.8630   -0.7139 C.ar    4  PHENYL4444   -0.0571
     34 C34         9.2807    1.1641   -2.6454 C.3     4  PHENYL4444   -0.0135
     35 H          -4.0105    1.7905   -2.5128 H       1  BENZYL1111    0.0399
     36 H          -6.4174    2.5380   -1.4001 H       1  BENZYL1111    0.0620
     37 H          -7.2517    4.4131   -0.1149 H       1  BENZYL1111    0.0618
     38 H          -5.7429    5.6743    1.3169 H       1  BENZYL1111    0.0618
     39 H          -3.3938    5.0615    1.4239 H       1  BENZYL1111    0.0618
     40 H          -2.5593    3.1938    0.1260 H       1  BENZYL1111    0.0620
     41 H          -5.3987    0.6718    0.7228 H       2  PHENYL2222    0.0620
     42 H          -6.9538   -1.1663    1.0147 H       2  PHENYL2222    0.0618
     43 H          -7.4382   -2.6590   -0.8411 H       2  PHENYL2222    0.0618
     44 H          -6.3567   -2.3073   -2.9896 H       2  PHENYL2222    0.0618
     45 H          -4.8009   -0.4695   -3.2801 H       2  PHENYL2222    0.0620
     46 H          -1.8503    1.6864   -1.4200 H       1  BENZYL1111    0.0326
     47 H          -2.3920    0.1083   -1.9810 H       1  BENZYL1111    0.0326
     48 H          -2.7949   -0.6991    0.1769 H       1  BENZYL1111    0.0815
     49 H          -2.8239    0.9172    0.8498 H       1  BENZYL1111    0.0815
     50 H          -0.5348    1.0930    0.2364 H       3  CYCLOHEXYL3333    0.2033
     51 H          -0.2978   -0.6411   -1.3363 H       3  CYCLOHEXYL3333    0.0815
     52 H          -0.4532   -1.7805   -0.0202 H       3  CYCLOHEXYL3333    0.0815
     53 H           1.9283   -1.4309   -0.5411 H       3  CYCLOHEXYL3333    0.0335
     54 H           1.7252    0.2805   -0.2703 H       3  CYCLOHEXYL3333    0.0335
     55 H           1.3352   -1.8181    1.9220 H       3  CYCLOHEXYL3333    0.0504
     56 H           0.9861    0.1088    3.3409 H       3  CYCLOHEXYL3333    0.0335
     57 H           1.1438    1.1644    1.9646 H       3  CYCLOHEXYL3333    0.0335
     58 H          -1.0302   -0.9192    2.2960 H       3  CYCLOHEXYL3333    0.0815
     59 H          -1.2257    0.8008    2.4749 H       3  CYCLOHEXYL3333    0.0815
     60 H           3.1453    1.1330    2.3731 H       3  CYCLOHEXYL3333    0.0429
     61 H           4.5201    0.6500    1.3937 H       3  CYCLOHEXYL3333    0.0429
     62 H           4.4085    0.1378    3.0485 H       3  CYCLOHEXYL3333    0.0429
     63 H           5.6187   -3.0769    1.1902 H       3  CYCLOHEXYL3333    0.0407
     64 H           5.6197   -1.9209    2.5002 H       3  CYCLOHEXYL3333    0.0407
     65 H           7.3750   -0.3861    2.0293 H       4  PHENYL4444    0.0621
     66 H           8.3504    1.3257    0.6118 H       4  PHENYL4444    0.0629
     67 H           5.7359    0.2411   -2.5002 H       4  PHENYL4444    0.0629
     68 H           4.7452   -1.4556   -1.0753 H       4  PHENYL4444    0.0621
     69 H           9.8790    1.7482   -3.3130 H       4  PHENYL4444    0.0344
     70 H           8.9519    0.2685   -3.1299 H       4  PHENYL4444    0.0344
     71 H           9.8682    0.8916   -1.7936 H       4  PHENYL4444    0.0344
@<TRIPOS>BOND
     1     1     2    1
     2     2     3   ar
     3     2     7   ar
     4     7     6   ar
     5     6     5   ar
     6     5     4   ar
     7     4     3   ar
     8     8     9   ar
     9     8    13   ar
    10    13    12   ar
    11    12    11   ar
    12    11    10   ar
    13    10     9   ar
    14     1     8    1
    15     1    14    1
    16    14    15    1
    17    16    17    1
    18    16    21    1
    19    21    20    1
    20    20    19    1
    21    19    18    1
    22    18    17    1
    23    15    16    1
    24    19    22    1
    25    22    23    1
    26    31    24    1
    27    22    25   am
    28    25    26    2
    29    25    27    1
    30    28    29   ar
    31    33    28   ar
    32    32    33   ar
    33    32    31   ar
    34    31    30   ar
    35    30    29   ar
    36    27    28    1
    37    24    34    1
    38     1    35    1
    39     3    36    1
    40     4    37    1
    41     5    38    1
    42     6    39    1
    43     7    40    1
    44     9    41    1
    45    10    42    1
    46    11    43    1
    47    12    44    1
    48    13    45    1
    49    14    46    1
    50    14    47    1
    51    15    48    1
    52    15    49    1
    53    16    50    1
    54    17    51    1
    55    17    52    1
    56    18    53    1
    57    18    54    1
    58    19    55    1
    59    20    56    1
    60    20    57    1
    61    21    58    1
    62    21    59    1
    63    23    60    1
    64    23    61    1
    65    23    62    1
    66    27    63    1
    67    27    64    1
    68    29    65    1
    69    30    66    1
    70    32    67    1
    71    33    68    1
    72    34    69    1
    73    34    70    1
    74    34    71    1
