@<TRIPOS>MOLECULE
CCR5_69
 83 86 0 0 0
SMALL
GASTEIGER

@<TRIPOS>ATOM
      1 C1         -4.0021    1.4257   -1.4952 C.3     1  BENZYL1111    0.0140
      2 C2         -4.4210    2.6832   -0.7025 C.ar    1  BENZYL1111   -0.0398
      3 C3         -5.7474    3.1157   -0.8330 C.ar    1  BENZYL1111   -0.0580
      4 C4         -6.2179    4.2265   -0.1273 C.ar    1  BENZYL1111   -0.0615
      5 C5         -5.3568    4.9323    0.7155 C.ar    1  BENZYL1111   -0.0617
      6 C6         -4.0264    4.5250    0.8385 C.ar    1  BENZYL1111   -0.0615
      7 C7         -3.5596    3.4149    0.1278 C.ar    1  BENZYL1111   -0.0580
      8 C          -4.9908    0.2648   -1.2837 C.ar    2  PHENYL2222   -0.0397
      9 C          -5.6458    0.0837   -0.0599 C.ar    2  PHENYL2222   -0.0562
     10 C          -6.5339   -0.9810    0.1173 C.ar    2  PHENYL2222   -0.0402
     11 C          -6.7760   -1.8871   -0.9203 C.ar    2  PHENYL2222    0.0334
     12 C          -6.1402   -1.6925   -2.1518 C.ar    2  PHENYL2222   -0.0402
     13 C          -5.2439   -0.6340   -2.3259 C.ar    2  PHENYL2222   -0.0562
     14 C14        -2.5596    0.8875   -1.2647 C.3     1  BENZYL1111   -0.0017
     15 C15        -2.3672    0.2226    0.1283 C.3     1  BENZYL1111   -0.0310
     16 N16        -0.9354    0.1237    0.5206 N.4     3  CYCLOHEXYL3333    0.2353
     17 C2         -0.0895   -0.7047   -0.3752 C.3     3  CYCLOHEXYL3333   -0.0302
     18 C3          1.4075   -0.5508   -0.0072 C.3     3  CYCLOHEXYL3333    0.0063
     19 C4          1.6570   -0.9235    1.4736 C.3     3  CYCLOHEXYL3333    0.0356
     20 C5          0.7296   -0.0629    2.3720 C.3     3  CYCLOHEXYL3333    0.0063
     21 C6         -0.7516   -0.2398    1.9495 C.3     3  CYCLOHEXYL3333   -0.0302
     22 N22         3.1083   -0.8171    1.7196 N.am    3  CYCLOHEXYL3333   -0.2980
     23 C23         3.7490    0.4498    2.1069 C.3     3  CYCLOHEXYL3333    0.0121
     24 C24         3.8663    0.5963    3.6466 C.3     3  CYCLOHEXYL3333   -0.0493
     25 C25         3.8677   -1.9289    1.4840 C.2     3  CYCLOHEXYL3333    0.2201
     26 O26         3.3567   -2.9827    1.1394 O.2     3  CYCLOHEXYL3333   -0.2752
     27 C27         5.3762   -1.9633    1.5932 C.3     3  CYCLOHEXYL3333    0.0493
     28 C           6.0360   -1.2602    0.3971 C.ar    4  PHENYL4444   -0.0385
     29 C           7.1550   -0.4395    0.5826 C.ar    4  PHENYL4444   -0.0563
     30 C           7.7191    0.2413   -0.5002 C.ar    4  PHENYL4444   -0.0366
     31 C           7.1714    0.1057   -1.7784 C.ar    4  PHENYL4444    0.0879
     32 C           6.0802   -0.7445   -1.9747 C.ar    4  PHENYL4444   -0.0366
     33 C           5.5193   -1.4292   -0.8928 C.ar    4  PHENYL4444   -0.0563
     34 S1          7.8937    0.9649   -3.1550 S.O2    5  SULFONYL5555   -0.0059
     35 O           6.8981    1.1171   -4.1977 O.2     5  SULFONYL5555   -0.1696
     36 O           8.6042    2.1315   -2.6692 O.2     5  SULFONYL5555   -0.1696
     37 N37        -7.6264   -2.9242   -0.7184 N.am    6  SULFONYL6666   -0.2857
     38 C38        -7.3416   -4.1406   -1.1034 C.2     6  SULFONYL6666    0.2141
     39 O39        -6.2977   -4.4423   -1.6575 O.2     6  SULFONYL6666   -0.2758
     40 C40         9.1019   -0.2541   -3.6946 C.3     5  SULFONYL5555    0.0596
     41 C41        -8.3453   -5.2357   -0.8449 C.3     6  SULFONYL6666    0.0125
     42 H          -4.0186    1.7859   -2.5026 H       1  BENZYL1111    0.0399
     43 H          -6.3878    2.6053   -1.4610 H       1  BENZYL1111    0.0620
     44 H          -7.2006    4.5248   -0.2289 H       1  BENZYL1111    0.0618
     45 H          -5.7010    5.7492    1.2439 H       1  BENZYL1111    0.0618
     46 H          -3.3849    5.0458    1.4568 H       1  BENZYL1111    0.0618
     47 H          -2.5712    3.1312    0.2152 H       1  BENZYL1111    0.0620
     48 H          -5.4718    0.7407    0.7167 H       2  PHENYL2222    0.0621
     49 H          -7.0155   -1.0997    1.0223 H       2  PHENYL2222    0.0636
     50 H          -6.3343   -2.3344   -2.9362 H       2  PHENYL2222    0.0636
     51 H          -4.7642   -0.5143   -3.2318 H       2  PHENYL2222    0.0621
     52 H          -1.8560    1.6851   -1.3819 H       1  BENZYL1111    0.0326
     53 H          -2.3927    0.1255   -1.9971 H       1  BENZYL1111    0.0326
     54 H          -2.8094   -0.7517    0.1274 H       1  BENZYL1111    0.0815
     55 H          -2.8515    0.8483    0.8486 H       1  BENZYL1111    0.0815
     56 H          -0.5880    1.0749    0.3983 H       3  CYCLOHEXYL3333    0.2033
     57 H          -0.2478   -0.4216   -1.3948 H       3  CYCLOHEXYL3333    0.0815
     58 H          -0.3662   -1.7308   -0.2505 H       3  CYCLOHEXYL3333    0.0815
     59 H           2.0061   -1.1669   -0.6452 H       3  CYCLOHEXYL3333    0.0335
     60 H           1.6823    0.4741   -0.1451 H       3  CYCLOHEXYL3333    0.0335
     61 H           1.3962   -1.9317    1.7193 H       3  CYCLOHEXYL3333    0.0504
     62 H           0.8542   -0.3378    3.3985 H       3  CYCLOHEXYL3333    0.0335
     63 H           0.9978    0.9660    2.2521 H       3  CYCLOHEXYL3333    0.0335
     64 H          -1.0618   -1.2506    2.1138 H       3  CYCLOHEXYL3333    0.0815
     65 H          -1.3547    0.4125    2.5458 H       3  CYCLOHEXYL3333    0.0815
     66 H           3.1961    1.2732    1.7054 H       3  CYCLOHEXYL3333    0.0462
     67 H           4.7410    0.4463    1.7059 H       3  CYCLOHEXYL3333    0.0462
     68 H           2.8881    0.6033    4.0803 H       3  CYCLOHEXYL3333    0.0245
     69 H           4.3878    1.4972    3.8943 H       3  CYCLOHEXYL3333    0.0245
     70 H           4.4185   -0.2325    4.0377 H       3  CYCLOHEXYL3333    0.0245
     71 H           5.7150   -2.9765    1.6536 H       3  CYCLOHEXYL3333    0.0407
     72 H           5.6576   -1.4405    2.4834 H       3  CYCLOHEXYL3333    0.0407
     73 H           7.5656   -0.3366    1.5238 H       4  PHENYL4444    0.0621
     74 H           8.5427    0.8460   -0.3550 H       4  PHENYL4444    0.0637
     75 H           5.6872   -0.8673   -2.9210 H       4  PHENYL4444    0.0637
     76 H           4.7195   -2.0631   -1.0460 H       4  PHENYL4444    0.0621
     77 H          -8.4853   -2.7556   -0.2677 H       6  SULFONYL6666    0.1548
     78 H           9.6362    0.1232   -4.5414 H       5  SULFONYL5555    0.0468
     79 H           8.6146   -1.1736   -3.9436 H       5  SULFONYL5555    0.0468
     80 H           9.7918   -0.4418   -2.8985 H       5  SULFONYL5555    0.0468
     81 H          -9.2043   -4.8249   -0.3568 H       6  SULFONYL6666    0.0323
     82 H          -7.9083   -6.0038   -0.2416 H       6  SULFONYL6666    0.0323
     83 H          -8.6434   -5.6669   -1.7777 H       6  SULFONYL6666    0.0323
@<TRIPOS>BOND
     1     1     2    1
     2     2     3   ar
     3     2     7   ar
     4     7     6   ar
     5     6     5   ar
     6     5     4   ar
     7     4     3   ar
     8     8     9   ar
     9     8    13   ar
    10    13    12   ar
    11    12    11   ar
    12    11    10   ar
    13    10     9   ar
    14     1     8    1
    15     1    14    1
    16    14    15    1
    17    16    17    1
    18    16    21    1
    19    21    20    1
    20    20    19    1
    21    19    18    1
    22    18    17    1
    23    15    16    1
    24    19    22    1
    25    22    23    1
    26    23    24    1
    27    22    25   am
    28    25    26    2
    29    25    27    1
    30    28    29   ar
    31    28    33   ar
    32    33    32   ar
    33    32    31   ar
    34    31    30   ar
    35    30    29   ar
    36    27    28    1
    37    34    35    2
    38    34    36    2
    39    31    34    1
    40    37    38   am
    41    38    39    2
    42    11    37    1
    43    34    40    1
    44    38    41    1
    45     1    42    1
    46     3    43    1
    47     4    44    1
    48     5    45    1
    49     6    46    1
    50     7    47    1
    51     9    48    1
    52    10    49    1
    53    12    50    1
    54    13    51    1
    55    14    52    1
    56    14    53    1
    57    15    54    1
    58    15    55    1
    59    16    56    1
    60    17    57    1
    61    17    58    1
    62    18    59    1
    63    18    60    1
    64    19    61    1
    65    20    62    1
    66    20    63    1
    67    21    64    1
    68    21    65    1
    69    23    66    1
    70    23    67    1
    71    24    68    1
    72    24    69    1
    73    24    70    1
    74    27    71    1
    75    27    72    1
    76    29    73    1
    77    30    74    1
    78    32    75    1
    79    33    76    1
    80    37    77    1
    81    40    78    1
    82    40    79    1
    83    40    80    1
    84    41    81    1
    85    41    82    1
    86    41    83    1
