@<TRIPOS>MOLECULE
CCR5_32
 74 77 0 0 0
SMALL
GASTEIGER

@<TRIPOS>ATOM
      1 C1         -4.0035    1.4165   -1.5074 C.3     1  BENZYL1111    0.0140
      2 C2         -4.4204    2.6773   -0.7187 C.ar    1  BENZYL1111   -0.0398
      3 C3         -5.7510    3.1006   -0.8350 C.ar    1  BENZYL1111   -0.0580
      4 C4         -6.2206    4.2106   -0.1274 C.ar    1  BENZYL1111   -0.0615
      5 C5         -5.3539    4.9262    0.7012 C.ar    1  BENZYL1111   -0.0617
      6 C6         -4.0188    4.5301    0.8072 C.ar    1  BENZYL1111   -0.0615
      7 C7         -3.5532    3.4203    0.0954 C.ar    1  BENZYL1111   -0.0580
      8 C          -4.9929    0.2587   -1.2800 C.ar    2  PHENYL2222   -0.0398
      9 C          -5.6213    0.0788   -0.0413 C.ar    2  PHENYL2222   -0.0580
     10 C          -6.5211   -0.9733    0.1517 C.ar    2  PHENYL2222   -0.0615
     11 C          -6.7986   -1.8579   -0.8935 C.ar    2  PHENYL2222   -0.0617
     12 C          -6.1725   -1.6877   -2.1309 C.ar    2  PHENYL2222   -0.0615
     13 C          -5.2728   -0.6348   -2.3209 C.ar    2  PHENYL2222   -0.0580
     14 C14        -2.5584    0.8825   -1.2809 C.3     1  BENZYL1111   -0.0017
     15 C15        -2.3585    0.2317    0.1176 C.3     1  BENZYL1111   -0.0310
     16 N16        -0.9287    0.1336    0.5169 N.4     3  CYCLOHEXYL3333    0.2353
     17 C2         -0.0604   -0.6475   -0.3997 C.3     3  CYCLOHEXYL3333   -0.0302
     18 C3          1.4295   -0.4982    0.0002 C.3     3  CYCLOHEXYL3333    0.0063
     19 C4          1.6578   -0.9314    1.4680 C.3     3  CYCLOHEXYL3333    0.0356
     20 C5          0.7097   -0.1153    2.3857 C.3     3  CYCLOHEXYL3333    0.0063
     21 C6         -0.7625   -0.2866    1.9324 C.3     3  CYCLOHEXYL3333   -0.0302
     22 N22         3.1030   -0.8267    1.7484 N.am    3  CYCLOHEXYL3333   -0.2980
     23 C23         3.7256    0.4248    2.2086 C.3     3  CYCLOHEXYL3333    0.0121
     24 C24         3.8076    0.5051    3.7555 C.3     3  CYCLOHEXYL3333   -0.0493
     25 C25         3.8753   -1.9222    1.4792 C.2     3  CYCLOHEXYL3333    0.2201
     26 O26         3.3789   -2.9596    1.0694 O.2     3  CYCLOHEXYL3333   -0.2752
     27 C27         5.3805   -1.9563    1.6304 C.3     3  CYCLOHEXYL3333    0.0493
     28 C           6.0707   -1.1826    0.4971 C.ar    4  PHENYL4444   -0.0384
     29 C           7.1549   -0.3389    0.7633 C.ar    4  PHENYL4444   -0.0547
     30 C           7.7387    0.4176   -0.2578 C.ar    4  PHENYL4444   -0.0194
     31 C           7.2500    0.3293   -1.5684 C.ar    4  PHENYL4444    0.1300
     32 C           6.1990   -0.5509   -1.8393 C.ar    4  PHENYL4444   -0.0194
     33 C           5.6153   -1.3072   -0.8194 C.ar    4  PHENYL4444   -0.0547
     34 O34         7.7724    1.0904   -2.6225 O.3     4  PHENYL4444   -0.4057
     35 C35         8.7653    2.1018   -2.4015 C.3     4  PHENYL4444    0.5752
     36 F36         9.0093    2.7136   -3.5906 F       4  PHENYL4444   -0.1328
     37 F37         9.9237    1.5499   -1.9489 F       4  PHENYL4444   -0.1328
     38 F38         8.3114    3.0293   -1.5151 F       4  PHENYL4444   -0.1328
     39 H          -4.0231    1.7668   -2.5183 H       1  BENZYL1111    0.0399
     40 H          -6.3953    2.5839   -1.4538 H       1  BENZYL1111    0.0620
     41 H          -7.2068    4.5010   -0.2172 H       1  BENZYL1111    0.0618
     42 H          -5.6975    5.7421    1.2316 H       1  BENZYL1111    0.0618
     43 H          -3.3728    5.0591    1.4138 H       1  BENZYL1111    0.0618
     44 H          -2.5613    3.1451    0.1699 H       1  BENZYL1111    0.0620
     45 H          -5.4184    0.7280    0.7349 H       2  PHENYL2222    0.0620
     46 H          -6.9810   -1.0968    1.0673 H       2  PHENYL2222    0.0618
     47 H          -7.4637   -2.6343   -0.7521 H       2  PHENYL2222    0.0618
     48 H          -6.3744   -2.3396   -2.9050 H       2  PHENYL2222    0.0618
     49 H          -4.8111   -0.5151   -3.2361 H       2  PHENYL2222    0.0620
     50 H          -1.8566    1.6799   -1.4095 H       1  BENZYL1111    0.0326
     51 H          -2.3937    0.1144   -2.0074 H       1  BENZYL1111    0.0326
     52 H          -2.8020   -0.7420    0.1275 H       1  BENZYL1111    0.0815
     53 H          -2.8376    0.8706    0.8298 H       1  BENZYL1111    0.0815
     54 H          -0.5880    1.0911    0.4307 H       3  CYCLOHEXYL3333    0.2033
     55 H          -0.2041   -0.3209   -1.4085 H       3  CYCLOHEXYL3333    0.0815
     56 H          -0.3300   -1.6802   -0.3247 H       3  CYCLOHEXYL3333    0.0815
     57 H           2.0436   -1.0822   -0.6530 H       3  CYCLOHEXYL3333    0.0335
     58 H           1.6979    0.5337   -0.0894 H       3  CYCLOHEXYL3333    0.0335
     59 H           1.4011   -1.9518    1.6625 H       3  CYCLOHEXYL3333    0.0504
     60 H           0.8204   -0.4309    3.4021 H       3  CYCLOHEXYL3333    0.0335
     61 H           0.9712    0.9197    2.3125 H       3  CYCLOHEXYL3333    0.0335
     62 H          -1.0663   -1.3057    2.0505 H       3  CYCLOHEXYL3333    0.0815
     63 H          -1.3799    0.3365    2.5451 H       3  CYCLOHEXYL3333    0.0815
     64 H           3.1769    1.2623    1.8312 H       3  CYCLOHEXYL3333    0.0462
     65 H           4.7271    0.4429    1.8323 H       3  CYCLOHEXYL3333    0.0462
     66 H           2.8199    0.4892    4.1668 H       3  CYCLOHEXYL3333    0.0245
     67 H           4.3188    1.3966    4.0536 H       3  CYCLOHEXYL3333    0.0245
     68 H           4.3552   -0.3375    4.1229 H       3  CYCLOHEXYL3333    0.0245
     69 H           5.7234   -2.9698    1.6422 H       3  CYCLOHEXYL3333    0.0407
     70 H           5.6326   -1.4845    2.5571 H       3  CYCLOHEXYL3333    0.0407
     71 H           7.5277   -0.2742    1.7234 H       4  PHENYL4444    0.0622
     72 H           8.5318    1.0428   -0.0456 H       4  PHENYL4444    0.0654
     73 H           5.8491   -0.6437   -2.8057 H       4  PHENYL4444    0.0654
     74 H           4.8461   -1.9595   -1.0382 H       4  PHENYL4444    0.0622
@<TRIPOS>BOND
     1     1     2    1
     2     2     3   ar
     3     2     7   ar
     4     7     6   ar
     5     6     5   ar
     6     5     4   ar
     7     4     3   ar
     8     8     9   ar
     9     8    13   ar
    10    13    12   ar
    11    12    11   ar
    12    11    10   ar
    13    10     9   ar
    14     1     8    1
    15     1    14    1
    16    14    15    1
    17    16    17    1
    18    16    21    1
    19    21    20    1
    20    20    19    1
    21    19    18    1
    22    18    17    1
    23    15    16    1
    24    19    22    1
    25    22    23    1
    26    23    24    1
    27    22    25   am
    28    25    26    2
    29    25    27    1
    30    28    29   ar
    31    28    33   ar
    32    33    32   ar
    33    32    31   ar
    34    31    30   ar
    35    30    29   ar
    36    27    28    1
    37    31    34    1
    38    34    35    1
    39    35    36    1
    40    35    37    1
    41    35    38    1
    42     1    39    1
    43     3    40    1
    44     4    41    1
    45     5    42    1
    46     6    43    1
    47     7    44    1
    48     9    45    1
    49    10    46    1
    50    11    47    1
    51    12    48    1
    52    13    49    1
    53    14    50    1
    54    14    51    1
    55    15    52    1
    56    15    53    1
    57    16    54    1
    58    17    55    1
    59    17    56    1
    60    18    57    1
    61    18    58    1
    62    19    59    1
    63    20    60    1
    64    20    61    1
    65    21    62    1
    66    21    63    1
    67    23    64    1
    68    23    65    1
    69    24    66    1
    70    24    67    1
    71    24    68    1
    72    27    69    1
    73    27    70    1
    74    29    71    1
    75    30    72    1
    76    32    73    1
    77    33    74    1
