@<TRIPOS>MOLECULE
CCR5_52
 76 79 0 0 0
SMALL
GASTEIGER

@<TRIPOS>ATOM
      1 C1         -4.0287    1.4274   -1.5107 C.3     1  BENZYL1111    0.0140
      2 C2         -4.4142    2.6659   -0.6720 C.ar    1  BENZYL1111   -0.0398
      3 C3         -5.7357    3.1219   -0.7662 C.ar    1  BENZYL1111   -0.0580
      4 C4         -6.1778    4.2157   -0.0170 C.ar    1  BENZYL1111   -0.0615
      5 C5         -5.2926    4.8804    0.8343 C.ar    1  BENZYL1111   -0.0617
      6 C6         -3.9668    4.4501    0.9214 C.ar    1  BENZYL1111   -0.0615
      7 C7         -3.5283    3.3575    0.1669 C.ar    1  BENZYL1111   -0.0580
      8 C          -5.0267    0.2739   -1.2997 C.ar    2  PHENYL2222   -0.0398
      9 C          -5.6441    0.0695   -0.0591 C.ar    2  PHENYL2222   -0.0580
     10 C          -6.5538   -0.9770    0.1170 C.ar    2  PHENYL2222   -0.0615
     11 C          -6.8521   -1.8321   -0.9469 C.ar    2  PHENYL2222   -0.0617
     12 C          -6.2361   -1.6382   -2.1860 C.ar    2  PHENYL2222   -0.0615
     13 C          -5.3265   -0.5909   -2.3591 C.ar    2  PHENYL2222   -0.0580
     14 C14        -2.5838    0.8744   -1.3339 C.3     1  BENZYL1111   -0.0017
     15 C15        -2.3628    0.1662    0.0331 C.3     1  BENZYL1111   -0.0310
     16 N16        -0.9277    0.0837    0.4158 N.4     3  CYCLOHEXYL3333    0.2353
     17 C2         -0.0535   -0.6613   -0.5265 C.3     3  CYCLOHEXYL3333   -0.0302
     18 C3          1.4392   -0.4718   -0.1489 C.3     3  CYCLOHEXYL3333    0.0064
     19 C4          1.6892   -0.9151    1.3134 C.3     3  CYCLOHEXYL3333    0.0374
     20 C5          0.7369   -0.1369    2.2574 C.3     3  CYCLOHEXYL3333    0.0064
     21 C6         -0.7359   -0.3482    1.8251 C.3     3  CYCLOHEXYL3333   -0.0302
     22 N22         3.1069   -0.7599    1.6960 N.am    3  CYCLOHEXYL3333   -0.2785
     23 C1          3.7438    0.5608    1.7775 C.3     5  ALLYL5555    0.0343
     24 C2          4.8641    0.6346    0.7671 C.2     5  ALLYL5555   -0.0739
     25 C25         3.8554   -1.8815    1.9216 C.2     3  CYCLOHEXYL3333    0.3030
     26 O26         3.3864   -2.9839    1.6929 O.2     3  CYCLOHEXYL3333   -0.2526
     27 C3          6.0738    1.1366    1.0445 C.2     5  ALLYL5555   -0.1012
     28 C           6.6783   -3.1595    1.1487 C.ar    4  PHENYL4444   -0.0300
     29 C           7.7828   -2.3384    0.8955 C.ar    4  PHENYL4444   -0.0542
     30 C           8.4805   -2.4302   -0.3137 C.ar    4  PHENYL4444   -0.0501
     31 C           8.0706   -3.3628   -1.2729 C.ar    4  PHENYL4444   -0.0588
     32 C           6.9619   -4.1788   -1.0309 C.ar    4  PHENYL4444   -0.0612
     33 C           6.2623   -4.0729    0.1743 C.ar    4  PHENYL4444   -0.0571
     34 N34         5.1245   -1.8275    2.3971 N.am    3  CYCLOHEXYL3333   -0.2951
     35 C35         5.9365   -3.0405    2.4852 C.3     3  CYCLOHEXYL3333    0.0383
     36 C36         9.6804   -1.5110   -0.5724 C.3     4  PHENYL4444   -0.0397
     37 H          -4.0667    1.8082   -2.5099 H       1  BENZYL1111    0.0399
     38 H          -6.3939    2.6418   -1.3997 H       1  BENZYL1111    0.0620
     39 H          -7.1573    4.5318   -0.0928 H       1  BENZYL1111    0.0618
     40 H          -5.6159    5.6841    1.3952 H       1  BENZYL1111    0.0618
     41 H          -3.3076    4.9409    1.5456 H       1  BENZYL1111    0.0618
     42 H          -2.5429    3.0570    0.2280 H       1  BENZYL1111    0.0620
     43 H          -5.4256    0.6964    0.7310 H       2  PHENYL2222    0.0620
     44 H          -7.0057   -1.1182    1.0340 H       2  PHENYL2222    0.0618
     45 H          -7.5249   -2.6040   -0.8181 H       2  PHENYL2222    0.0618
     46 H          -6.4528   -2.2685   -2.9739 H       2  PHENYL2222    0.0618
     47 H          -4.8721   -0.4541   -3.2755 H       2  PHENYL2222    0.0620
     48 H          -1.8783    1.6713   -1.4437 H       1  BENZYL1111    0.0326
     49 H          -2.4388    0.1352   -2.0939 H       1  BENZYL1111    0.0326
     50 H          -2.7842   -0.8168    0.0016 H       1  BENZYL1111    0.0815
     51 H          -2.8528    0.7590    0.7770 H       1  BENZYL1111    0.0815
     52 H          -0.6039    1.0481    0.3417 H       3  CYCLOHEXYL3333    0.2033
     53 H          -0.2242   -0.3268   -1.5284 H       3  CYCLOHEXYL3333    0.0815
     54 H          -0.2917   -1.7024   -0.4612 H       3  CYCLOHEXYL3333    0.0815
     55 H           2.0607   -1.0337   -0.8144 H       3  CYCLOHEXYL3333    0.0335
     56 H           1.6837    0.5662   -0.2368 H       3  CYCLOHEXYL3333    0.0335
     57 H           1.4737   -1.9593    1.4027 H       3  CYCLOHEXYL3333    0.0505
     58 H           0.8742   -0.4610    3.2678 H       3  CYCLOHEXYL3333    0.0335
     59 H           0.9674    0.9061    2.1949 H       3  CYCLOHEXYL3333    0.0335
     60 H          -1.0074   -1.3774    1.9346 H       3  CYCLOHEXYL3333    0.0815
     61 H          -1.3660    0.2454    2.4540 H       3  CYCLOHEXYL3333    0.0815
     62 H           3.0253    1.3317    1.5924 H       5  ALLYL5555    0.0508
     63 H           4.1419    0.7032    2.7604 H       5  ALLYL5555    0.0508
     64 H           4.6880    0.2799   -0.1859 H       5  ALLYL5555    0.0582
     65 H           6.2781    1.4984    1.9891 H       5  ALLYL5555    0.0532
     66 H           6.8020    1.1617    0.3137 H       5  ALLYL5555    0.0532
     67 H           8.0862   -1.6573    1.6090 H       4  PHENYL4444    0.0623
     68 H           8.5883   -3.4484   -2.1615 H       4  PHENYL4444    0.0620
     69 H           6.6593   -4.8610   -1.7437 H       4  PHENYL4444    0.0618
     70 H           5.4377   -4.6693    0.3456 H       4  PHENYL4444    0.0621
     71 H           5.5019   -0.9650    2.6851 H       3  CYCLOHEXYL3333    0.1506
     72 H           5.3210   -3.8988    2.6565 H       3  CYCLOHEXYL3333    0.0512
     73 H           6.6228   -2.9871    3.3044 H       3  CYCLOHEXYL3333    0.0512
     74 H          10.0878   -1.7191   -1.5397 H       4  PHENYL4444    0.0278
     75 H          10.4257   -1.6536    0.1820 H       4  PHENYL4444    0.0278
     76 H           9.3563   -0.4918   -0.5391 H       4  PHENYL4444    0.0278
@<TRIPOS>BOND
     1     1     2    1
     2     2     3   ar
     3     2     7   ar
     4     7     6   ar
     5     6     5   ar
     6     5     4   ar
     7     4     3   ar
     8     8     9   ar
     9     8    13   ar
    10    13    12   ar
    11    12    11   ar
    12    11    10   ar
    13    10     9   ar
    14     1     8    1
    15     1    14    1
    16    14    15    1
    17    16    17    1
    18    16    21    1
    19    21    20    1
    20    20    19    1
    21    19    18    1
    22    18    17    1
    23    16    15    1
    24    19    22    1
    25    23    24    1
    26    24    27    2
    27    22    25   am
    28    25    26    2
    29    22    23    1
    30    28    29   ar
    31    28    33   ar
    32    33    32   ar
    33    32    31   ar
    34    31    30   ar
    35    30    29   ar
    36    25    34   am
    37    34    35    1
    38    28    35    1
    39    30    36    1
    40     1    37    1
    41     3    38    1
    42     4    39    1
    43     5    40    1
    44     6    41    1
    45     7    42    1
    46     9    43    1
    47    10    44    1
    48    11    45    1
    49    12    46    1
    50    13    47    1
    51    14    48    1
    52    14    49    1
    53    15    50    1
    54    15    51    1
    55    16    52    1
    56    17    53    1
    57    17    54    1
    58    18    55    1
    59    18    56    1
    60    19    57    1
    61    20    58    1
    62    20    59    1
    63    21    60    1
    64    21    61    1
    65    23    62    1
    66    23    63    1
    67    24    64    1
    68    27    65    1
    69    27    66    1
    70    29    67    1
    71    31    68    1
    72    32    69    1
    73    33    70    1
    74    34    71    1
    75    35    72    1
    76    35    73    1
    77    36    74    1
    78    36    75    1
    79    36    76    1
