@<TRIPOS>MOLECULE
CCR5_03
 70 73 0 0 0
SMALL
GASTEIGER

@<TRIPOS>ATOM
      1 C1         -3.9935    1.4245   -1.5045 C.3     1  BENZYL1111    0.0140
      2 C2         -4.4234    2.6704   -0.6986 C.ar    1  BENZYL1111   -0.0398
      3 C3         -5.7655    3.0647   -0.7800 C.ar    1  BENZYL1111   -0.0580
      4 C4         -6.2459    4.1496   -0.0415 C.ar    1  BENZYL1111   -0.0615
      5 C5         -5.3782    4.8724    0.7799 C.ar    1  BENZYL1111   -0.0617
      6 C6         -4.0304    4.5118    0.8437 C.ar    1  BENZYL1111   -0.0615
      7 C7         -3.5541    3.4280    0.0996 C.ar    1  BENZYL1111   -0.0580
      8 C          -4.9811    0.2590   -1.3113 C.ar    2  PHENYL2222   -0.0398
      9 C          -5.6068    0.0405   -0.0775 C.ar    2  PHENYL2222   -0.0580
     10 C          -6.5066   -1.0169    0.0843 C.ar    2  PHENYL2222   -0.0615
     11 C          -6.7865   -1.8685   -0.9874 C.ar    2  PHENYL2222   -0.0617
     12 C          -6.1623   -1.6602   -2.2200 C.ar    2  PHENYL2222   -0.0615
     13 C          -5.2625   -0.6023   -2.3787 C.ar    2  PHENYL2222   -0.0580
     14 C14        -2.5519    0.8860   -1.2663 C.3     1  BENZYL1111   -0.0017
     15 C15        -2.3548    0.2600    0.1435 C.3     1  BENZYL1111   -0.0310
     16 N16        -0.9147    0.1608    0.5036 N.4     3  CYCLOHEXYL3333    0.2353
     17 C2         -0.1481   -0.8495   -0.2683 C.3     3  CYCLOHEXYL3333   -0.0302
     18 C3          1.3713   -0.7416    0.0202 C.3     3  CYCLOHEXYL3333    0.0063
     19 C4          1.6592   -0.8770    1.5366 C.3     3  CYCLOHEXYL3333    0.0353
     20 C5          0.8343    0.2118    2.2717 C.3     3  CYCLOHEXYL3333    0.0063
     21 C6         -0.6754    0.0497    1.9648 C.3     3  CYCLOHEXYL3333   -0.0302
     22 N22         3.1187   -0.8398    1.7430 N.am    3  CYCLOHEXYL3333   -0.3006
     23 C23         3.8279    0.3976    2.1006 C.3     3  CYCLOHEXYL3333    0.0035
     24 C24         5.8564   -3.4612    1.0467 C.3     3  CYCLOHEXYL3333   -0.0500
     25 C25         3.8146   -1.9792    1.4521 C.2     3  CYCLOHEXYL3333    0.2227
     26 O26         3.2266   -3.0015    1.1367 O.2     3  CYCLOHEXYL3333   -0.2749
     27 C27         5.3286   -2.0664    1.4793 C.3     3  CYCLOHEXYL3333    0.0579
     28 C           5.9466   -1.0186    0.5387 C.ar    4  PHENYL4444   -0.0358
     29 C           7.0749   -0.2879    0.9293 C.ar    4  PHENYL4444   -0.0579
     30 C           7.6129    0.6870    0.0841 C.ar    4  PHENYL4444   -0.0615
     31 C           7.0312    0.9303   -1.1630 C.ar    4  PHENYL4444   -0.0617
     32 C           5.9161    0.1909   -1.5660 C.ar    4  PHENYL4444   -0.0615
     33 C           5.3817   -0.7854   -0.7206 C.ar    4  PHENYL4444   -0.0579
     34 H          -4.0012    1.7960   -2.5079 H       1  BENZYL1111    0.0399
     35 H          -6.4103    2.5451   -1.3958 H       1  BENZYL1111    0.0620
     36 H          -7.2409    4.4163   -0.1031 H       1  BENZYL1111    0.0618
     37 H          -5.7303    5.6674    1.3358 H       1  BENZYL1111    0.0618
     38 H          -3.3831    5.0477    1.4427 H       1  BENZYL1111    0.0618
     39 H          -2.5523    3.1830    0.1382 H       1  BENZYL1111    0.0620
     40 H          -5.4020    0.6649    0.7182 H       2  PHENYL2222    0.0620
     41 H          -6.9647   -1.1687    0.9965 H       2  PHENYL2222    0.0618
     42 H          -7.4518   -2.6485   -0.8690 H       2  PHENYL2222    0.0618
     43 H          -6.3657   -2.2877   -3.0137 H       2  PHENYL2222    0.0618
     44 H          -4.8017   -0.4549   -3.2903 H       2  PHENYL2222    0.0620
     45 H          -1.8453    1.6766   -1.4098 H       1  BENZYL1111    0.0326
     46 H          -2.3927    0.1027   -1.9777 H       1  BENZYL1111    0.0326
     47 H          -2.8059   -0.7097    0.1773 H       1  BENZYL1111    0.0815
     48 H          -2.8276    0.9026    0.8566 H       1  BENZYL1111    0.0815
     49 H          -0.5347    1.0617    0.2130 H       3  CYCLOHEXYL3333    0.2033
     50 H          -0.3307   -0.7248   -1.3152 H       3  CYCLOHEXYL3333    0.0815
     51 H          -0.4766   -1.8210    0.0370 H       3  CYCLOHEXYL3333    0.0815
     52 H           1.9011   -1.4970   -0.5216 H       3  CYCLOHEXYL3333    0.0335
     53 H           1.7057    0.2231   -0.2998 H       3  CYCLOHEXYL3333    0.0335
     54 H           1.3470   -1.8110    1.9550 H       3  CYCLOHEXYL3333    0.0504
     55 H           1.0032    0.1508    3.3265 H       3  CYCLOHEXYL3333    0.0335
     56 H           1.1512    1.1723    1.9227 H       3  CYCLOHEXYL3333    0.0335
     57 H          -1.0252   -0.8953    2.3247 H       3  CYCLOHEXYL3333    0.0815
     58 H          -1.2140    0.8288    2.4626 H       3  CYCLOHEXYL3333    0.0815
     59 H           3.1171    1.1741    2.2921 H       3  CYCLOHEXYL3333    0.0429
     60 H           4.4890    0.6872    1.3107 H       3  CYCLOHEXYL3333    0.0429
     61 H           4.4092    0.2275    2.9827 H       3  CYCLOHEXYL3333    0.0429
     62 H           5.4423   -4.2135    1.6850 H       3  CYCLOHEXYL3333    0.0240
     63 H           6.9252   -3.4835    1.0928 H       3  CYCLOHEXYL3333    0.0240
     64 H           5.5574   -3.6528    0.0373 H       3  CYCLOHEXYL3333    0.0240
     65 H           5.6152   -1.8882    2.4947 H       3  CYCLOHEXYL3333    0.0440
     66 H           7.5120   -0.4699    1.8463 H       4  PHENYL4444    0.0620
     67 H           8.4403    1.2274    0.3814 H       4  PHENYL4444    0.0618
     68 H           7.4242    1.6542   -1.7848 H       4  PHENYL4444    0.0618
     69 H           5.4870    0.3658   -2.4881 H       4  PHENYL4444    0.0618
     70 H           4.5655   -1.3378   -1.0267 H       4  PHENYL4444    0.0620
@<TRIPOS>BOND
     1     1     2    1
     2     2     3   ar
     3     2     7   ar
     4     7     6   ar
     5     6     5   ar
     6     5     4   ar
     7     4     3   ar
     8     8     9   ar
     9     8    13   ar
    10    13    12   ar
    11    12    11   ar
    12    11    10   ar
    13    10     9   ar
    14     1     8    1
    15     1    14    1
    16    14    15    1
    17    17    16    1
    18    21    16    1
    19    20    21    1
    20    19    20    1
    21    19    18    1
    22    18    17    1
    23    15    16    1
    24    22    19    1
    25    22    23    1
    26    27    24    1
    27    25    22   am
    28    25    26    2
    29    25    27    1
    30    28    29   ar
    31    28    33   ar
    32    33    32   ar
    33    32    31   ar
    34    31    30   ar
    35    30    29   ar
    36    27    28    1
    37     1    34    1
    38     3    35    1
    39     4    36    1
    40     5    37    1
    41     6    38    1
    42     7    39    1
    43     9    40    1
    44    10    41    1
    45    11    42    1
    46    12    43    1
    47    13    44    1
    48    14    45    1
    49    14    46    1
    50    15    47    1
    51    15    48    1
    52    16    49    1
    53    17    50    1
    54    17    51    1
    55    18    52    1
    56    18    53    1
    57    19    54    1
    58    20    55    1
    59    20    56    1
    60    21    57    1
    61    21    58    1
    62    23    59    1
    63    23    60    1
    64    23    61    1
    65    24    62    1
    66    24    63    1
    67    24    64    1
    68    27    65    1
    69    29    66    1
    70    30    67    1
    71    31    68    1
    72    32    69    1
    73    33    70    1
