@<TRIPOS>MOLECULE
CCR5_66
 80 83 0 0 0
SMALL
GASTEIGER

@<TRIPOS>ATOM
      1 C1         -4.0016    1.4198   -1.5121 C.3     1  BENZYL1111    0.0140
      2 C2         -4.4157    2.6804   -0.7222 C.ar    1  BENZYL1111   -0.0398
      3 C3         -5.7404    3.1170   -0.8550 C.ar    1  BENZYL1111   -0.0580
      4 C4         -6.2106    4.2247   -0.1444 C.ar    1  BENZYL1111   -0.0615
      5 C5         -5.3501    4.9242    0.7042 C.ar    1  BENZYL1111   -0.0617
      6 C6         -4.0199    4.5160    0.8253 C.ar    1  BENZYL1111   -0.0615
      7 C7         -3.5532    3.4093    0.1093 C.ar    1  BENZYL1111   -0.0580
      8 C          -4.9940    0.2659   -1.2805 C.ar    2  PHENYL2222   -0.0397
      9 C          -5.6241    0.0946   -0.0413 C.ar    2  PHENYL2222   -0.0570
     10 C          -6.5156   -0.9626    0.1600 C.ar    2  PHENYL2222   -0.0481
     11 C          -6.7895   -1.8556   -0.8779 C.ar    2  PHENYL2222    0.0076
     12 C          -6.1646   -1.6916   -2.1160 C.ar    2  PHENYL2222   -0.0481
     13 C          -5.2734   -0.6336   -2.3163 C.ar    2  PHENYL2222   -0.0570
     14 C14        -2.5585    0.8807   -1.2844 C.3     1  BENZYL1111   -0.0017
     15 C15        -2.3651    0.2151    0.1084 C.3     1  BENZYL1111   -0.0310
     16 N16        -0.9373    0.1138    0.5134 N.4     3  CYCLOHEXYL3333    0.2353
     17 C2         -0.0626   -0.6571   -0.4057 C.3     3  CYCLOHEXYL3333   -0.0302
     18 C3          1.4249   -0.4976   -0.0014 C.3     3  CYCLOHEXYL3333    0.0063
     19 C4          1.6544   -0.9364    1.4647 C.3     3  CYCLOHEXYL3333    0.0356
     20 C5          0.6949   -0.1372    2.3857 C.3     3  CYCLOHEXYL3333    0.0063
     21 C6         -0.7742   -0.3183    1.9258 C.3     3  CYCLOHEXYL3333   -0.0302
     22 N22         3.0980   -0.8159    1.7482 N.am    3  CYCLOHEXYL3333   -0.2980
     23 C23         3.7059    0.4424    2.2100 C.3     3  CYCLOHEXYL3333    0.0121
     24 C24         3.7857    0.5202    3.7573 C.3     3  CYCLOHEXYL3333   -0.0493
     25 C25         3.8831   -1.9017    1.4787 C.2     3  CYCLOHEXYL3333    0.2201
     26 O26         3.4000   -2.9456    1.0697 O.2     3  CYCLOHEXYL3333   -0.2752
     27 C27         5.3887   -1.9163    1.6267 C.3     3  CYCLOHEXYL3333    0.0493
     28 C           6.0692   -1.1410    0.4883 C.ar    4  PHENYL4444   -0.0385
     29 C           7.1732   -0.3201    0.7475 C.ar    4  PHENYL4444   -0.0563
     30 C           7.7550    0.4271   -0.2808 C.ar    4  PHENYL4444   -0.0366
     31 C           7.2400    0.3580   -1.5778 C.ar    4  PHENYL4444    0.0879
     32 C           6.1650   -0.4924   -1.8490 C.ar    4  PHENYL4444   -0.0366
     33 C           5.5864   -1.2431   -0.8216 C.ar    4  PHENYL4444   -0.0563
     34 S1          7.9839    1.3028   -2.8850 S.O2    5  SULFONYL5555   -0.0059
     35 O           7.0153    1.4929   -3.9468 O.2     5  SULFONYL5555   -0.1696
     36 O           8.6576    2.4541   -2.3172 O.2     5  SULFONYL5555   -0.1696
     37 S1         -7.8794   -3.2243   -0.6021 S.3     6  SULFONYL6666   -0.1286
     38 C40         9.2304    0.1364   -3.4532 C.3     5  SULFONYL5555    0.0596
     39 C41        -6.9084   -4.5911    0.0620 C.3     6  SULFONYL6666   -0.0135
     40 H          -4.0190    1.7693   -2.5232 H       1  BENZYL1111    0.0399
     41 H          -6.3798    2.6120   -1.4884 H       1  BENZYL1111    0.0620
     42 H          -7.1925    4.5253   -0.2467 H       1  BENZYL1111    0.0618
     43 H          -5.6947    5.7373    1.2383 H       1  BENZYL1111    0.0618
     44 H          -3.3784    5.0337    1.4462 H       1  BENZYL1111    0.0618
     45 H          -2.5644    3.1262    0.1936 H       1  BENZYL1111    0.0620
     46 H          -5.4286    0.7537    0.7284 H       2  PHENYL2222    0.0621
     47 H          -6.9724   -1.0835    1.0775 H       2  PHENYL2222    0.0629
     48 H          -6.3611   -2.3524   -2.8840 H       2  PHENYL2222    0.0629
     49 H          -4.8179   -0.5146   -3.2347 H       2  PHENYL2222    0.0621
     50 H          -1.8547    1.6780   -1.4021 H       1  BENZYL1111    0.0326
     51 H          -2.3925    0.1194   -2.0177 H       1  BENZYL1111    0.0326
     52 H          -2.8079   -0.7590    0.1058 H       1  BENZYL1111    0.0815
     53 H          -2.8482    0.8460    0.8250 H       1  BENZYL1111    0.0815
     54 H          -0.5999    1.0733    0.4369 H       3  CYCLOHEXYL3333    0.2033
     55 H          -0.2068   -0.3269   -1.4132 H       3  CYCLOHEXYL3333    0.0815
     56 H          -0.3250   -1.6922   -0.3372 H       3  CYCLOHEXYL3333    0.0815
     57 H           2.0453   -1.0729   -0.6564 H       3  CYCLOHEXYL3333    0.0335
     58 H           1.6844    0.5371   -0.0847 H       3  CYCLOHEXYL3333    0.0335
     59 H           1.4085   -1.9606    1.6530 H       3  CYCLOHEXYL3333    0.0504
     60 H           0.8049   -0.4604    3.3998 H       3  CYCLOHEXYL3333    0.0335
     61 H           0.9467    0.9008    2.3218 H       3  CYCLOHEXYL3333    0.0335
     62 H          -1.0688   -1.3413    2.0330 H       3  CYCLOHEXYL3333    0.0815
     63 H          -1.4006    0.2923    2.5421 H       3  CYCLOHEXYL3333    0.0815
     64 H           3.1474    1.2740    1.8338 H       3  CYCLOHEXYL3333    0.0462
     65 H           4.7071    0.4737    1.8337 H       3  CYCLOHEXYL3333    0.0462
     66 H           2.7980    0.4912    4.1678 H       3  CYCLOHEXYL3333    0.0245
     67 H           4.2855    1.4173    4.0578 H       3  CYCLOHEXYL3333    0.0245
     68 H           4.3434   -0.3164    4.1232 H       3  CYCLOHEXYL3333    0.0245
     69 H           5.7438   -2.9255    1.6440 H       3  CYCLOHEXYL3333    0.0407
     70 H           5.6359   -1.4351    2.5498 H       3  CYCLOHEXYL3333    0.0407
     71 H           7.5596   -0.2663    1.7029 H       4  PHENYL4444    0.0621
     72 H           8.5673    1.0316   -0.0814 H       4  PHENYL4444    0.0637
     73 H           5.7972   -0.5665   -2.8104 H       4  PHENYL4444    0.0637
     74 H           4.7986   -1.8763   -1.0300 H       4  PHENYL4444    0.0621
     75 H           9.7809    0.5681   -4.2628 H       5  SULFONYL5555    0.0468
     76 H           8.7683   -0.7770   -3.7649 H       5  SULFONYL5555    0.0468
     77 H           9.9011   -0.0814   -2.6484 H       5  SULFONYL5555    0.0468
     78 H          -7.5474   -5.4313    0.2370 H       6  SULFONYL6666    0.0344
     79 H          -6.4270   -4.2962    0.9709 H       6  SULFONYL6666    0.0344
     80 H          -6.1546   -4.8640   -0.6467 H       6  SULFONYL6666    0.0344
@<TRIPOS>BOND
     1     1     2    1
     2     2     3   ar
     3     2     7   ar
     4     7     6   ar
     5     6     5   ar
     6     5     4   ar
     7     4     3   ar
     8     8     9   ar
     9     8    13   ar
    10    13    12   ar
    11    12    11   ar
    12    11    10   ar
    13    10     9   ar
    14     1     8    1
    15     1    14    1
    16    14    15    1
    17    16    17    1
    18    16    21    1
    19    21    20    1
    20    20    19    1
    21    19    18    1
    22    18    17    1
    23    15    16    1
    24    19    22    1
    25    22    23    1
    26    23    24    1
    27    22    25   am
    28    25    26    2
    29    25    27    1
    30    28    29   ar
    31    28    33   ar
    32    33    32   ar
    33    32    31   ar
    34    31    30   ar
    35    30    29   ar
    36    27    28    1
    37    34    35    2
    38    34    36    2
    39    31    34    1
    40    11    37    1
    41    34    38    1
    42    37    39    1
    43     1    40    1
    44     3    41    1
    45     4    42    1
    46     5    43    1
    47     6    44    1
    48     7    45    1
    49     9    46    1
    50    10    47    1
    51    12    48    1
    52    13    49    1
    53    14    50    1
    54    14    51    1
    55    15    52    1
    56    15    53    1
    57    16    54    1
    58    17    55    1
    59    17    56    1
    60    18    57    1
    61    18    58    1
    62    19    59    1
    63    20    60    1
    64    20    61    1
    65    21    62    1
    66    21    63    1
    67    23    64    1
    68    23    65    1
    69    24    66    1
    70    24    67    1
    71    24    68    1
    72    27    69    1
    73    27    70    1
    74    29    71    1
    75    30    72    1
    76    32    73    1
    77    33    74    1
    78    38    75    1
    79    38    76    1
    80    38    77    1
    81    39    78    1
    82    39    79    1
    83    39    80    1
