@<TRIPOS>MOLECULE
CCR5_51
 75 78 0 0 0
SMALL
GASTEIGER

@<TRIPOS>ATOM
      1 C1         -3.9958    1.3332   -1.5017 C.3     1  BENZYL1111    0.0140
      2 C2         -4.2876    2.5709   -0.6245 C.ar    1  BENZYL1111   -0.0398
      3 C3         -5.5653    3.1388   -0.7134 C.ar    1  BENZYL1111   -0.0580
      4 C4         -5.9234    4.2377    0.0725 C.ar    1  BENZYL1111   -0.0615
      5 C5         -4.9960    4.7950    0.9554 C.ar    1  BENZYL1111   -0.0617
      6 C6         -3.7109    4.2540    1.0364 C.ar    1  BENZYL1111   -0.0615
      7 C7         -3.3561    3.1575    0.2446 C.ar    1  BENZYL1111   -0.0580
      8 C          -5.0868    0.2573   -1.3522 C.ar    2  PHENYL2222   -0.0398
      9 C          -5.7574    0.0665   -0.1374 C.ar    2  PHENYL2222   -0.0580
     10 C          -6.7533   -0.9075   -0.0222 C.ar    2  PHENYL2222   -0.0615
     11 C          -7.0859   -1.7031   -1.1215 C.ar    2  PHENYL2222   -0.0617
     12 C          -6.4166   -1.5238   -2.3348 C.ar    2  PHENYL2222   -0.0615
     13 C          -5.4204   -0.5496   -2.4467 C.ar    2  PHENYL2222   -0.0580
     14 C14        -2.6049    0.6593   -1.3187 C.3     1  BENZYL1111   -0.0017
     15 C15        -2.4459   -0.0639    0.0494 C.3     1  BENZYL1111   -0.0310
     16 N16        -1.0162   -0.1184    0.4503 N.4     3  CYCLOHEXYL3333    0.2353
     17 C2         -0.1610   -1.0208   -0.3600 C.3     3  CYCLOHEXYL3333   -0.0302
     18 C3          1.3325   -0.7003   -0.0984 C.3     3  CYCLOHEXYL3333    0.0064
     19 C4          1.6639   -0.8119    1.4105 C.3     3  CYCLOHEXYL3333    0.0370
     20 C5          0.6949    0.0839    2.2278 C.3     3  CYCLOHEXYL3333    0.0064
     21 C6         -0.7786   -0.2736    1.9076 C.3     3  CYCLOHEXYL3333   -0.0302
     22 N22         3.0964   -0.5168    1.6274 N.am    3  CYCLOHEXYL3333   -0.2825
     23 C23         3.6079    0.8621    1.5944 C.3     3  CYCLOHEXYL3333    0.0136
     24 C24         3.8363    1.4127    3.0275 C.3     3  CYCLOHEXYL3333   -0.0492
     25 C25         3.9540   -1.5678    1.8171 C.2     3  CYCLOHEXYL3333    0.3029
     26 O26         3.5231   -2.7085    1.7843 O.2     3  CYCLOHEXYL3333   -0.2526
     27 N27         5.2848   -1.4228    2.0437 N.am    3  CYCLOHEXYL3333   -0.2927
     28 C           7.4861   -2.2143    2.8650 C.ar    4  PHENYL4444   -0.0274
     29 C           7.8679   -2.7423    4.1055 C.ar    4  PHENYL4444   -0.0568
     30 C           9.0888   -2.3867    4.6866 C.ar    4  PHENYL4444   -0.0614
     31 C           9.9445   -1.4979    4.0312 C.ar    4  PHENYL4444   -0.0617
     32 C           9.5734   -0.9664    2.7938 C.ar    4  PHENYL4444   -0.0614
     33 C           8.3508   -1.3224    2.2171 C.ar    4  PHENYL4444   -0.0568
     34 C34         6.1379   -2.6018    2.2197 C.3     3  CYCLOHEXYL3333    0.0470
     35 C35         6.3824   -3.3052    0.8586 C.3     3  CYCLOHEXYL3333   -0.0424
     36 H          -3.9910    1.7497   -2.4873 H       1  BENZYL1111    0.0399
     37 H          -6.2536    2.7390   -1.3702 H       1  BENZYL1111    0.0620
     38 H          -6.8723    4.6369    0.0004 H       1  BENZYL1111    0.0618
     39 H          -5.2584    5.6011    1.5440 H       1  BENZYL1111    0.0618
     40 H          -3.0202    4.6653    1.6835 H       1  BENZYL1111    0.0618
     41 H          -2.3989    2.7759    0.3003 H       1  BENZYL1111    0.0620
     42 H          -5.5144    0.6494    0.6788 H       2  PHENYL2222    0.0620
     43 H          -7.2437   -1.0392    0.8762 H       2  PHENYL2222    0.0618
     44 H          -7.8231   -2.4204   -1.0377 H       2  PHENYL2222    0.0618
     45 H          -6.6578   -2.1108   -3.1486 H       2  PHENYL2222    0.0618
     46 H          -4.9264   -0.4240   -3.3440 H       2  PHENYL2222    0.0620
     47 H          -1.8337    1.3929   -1.4283 H       1  BENZYL1111    0.0326
     48 H          -2.5236   -0.0918   -2.0764 H       1  BENZYL1111    0.0326
     49 H          -2.8483   -1.0536   -0.0098 H       1  BENZYL1111    0.0815
     50 H          -2.9848    0.4893    0.7900 H       1  BENZYL1111    0.0815
     51 H          -0.7013    0.8239    0.2193 H       3  CYCLOHEXYL3333    0.2033
     52 H          -0.3866   -0.9088   -1.3999 H       3  CYCLOHEXYL3333    0.0815
     53 H          -0.3556   -2.0341   -0.0767 H       3  CYCLOHEXYL3333    0.0815
     54 H           1.9539   -1.3661   -0.6601 H       3  CYCLOHEXYL3333    0.0335
     55 H           1.5212    0.3054   -0.4114 H       3  CYCLOHEXYL3333    0.0335
     56 H           1.5103   -1.8099    1.7644 H       3  CYCLOHEXYL3333    0.0505
     57 H           0.8818   -0.0331    3.2748 H       3  CYCLOHEXYL3333    0.0335
     58 H           0.8639    1.1046    1.9547 H       3  CYCLOHEXYL3333    0.0335
     59 H          -0.9919   -1.2765    2.2135 H       3  CYCLOHEXYL3333    0.0815
     60 H          -1.4274    0.3869    2.4440 H       3  CYCLOHEXYL3333    0.0815
     61 H           2.9237    1.4926    1.0660 H       3  CYCLOHEXYL3333    0.0462
     62 H           4.5502    0.8546    1.0875 H       3  CYCLOHEXYL3333    0.0462
     63 H           2.9061    1.4300    3.5559 H       3  CYCLOHEXYL3333    0.0245
     64 H           4.2560    2.3960    2.9840 H       3  CYCLOHEXYL3333    0.0245
     65 H           4.5225    0.7747    3.5442 H       3  CYCLOHEXYL3333    0.0245
     66 H           5.6786   -0.5217    2.0900 H       3  CYCLOHEXYL3333    0.1508
     67 H           7.2416   -3.4003    4.5952 H       4  PHENYL4444    0.0621
     68 H           9.3583   -2.7814    5.6012 H       4  PHENYL4444    0.0618
     69 H          10.8462   -1.2353    4.4590 H       4  PHENYL4444    0.0618
     70 H          10.2024   -0.3103    2.3050 H       4  PHENYL4444    0.0618
     71 H           8.0821   -0.9238    1.3039 H       4  PHENYL4444    0.0621
     72 H           5.6316   -3.2809    2.8735 H       3  CYCLOHEXYL3333    0.0546
     73 H           6.8887   -2.6348    0.1960 H       3  CYCLOHEXYL3333    0.0251
     74 H           5.4527   -3.6173    0.4306 H       3  CYCLOHEXYL3333    0.0251
     75 H           6.9905   -4.1716    1.0147 H       3  CYCLOHEXYL3333    0.0251
@<TRIPOS>BOND
     1     1     2    1
     2     2     3   ar
     3     2     7   ar
     4     7     6   ar
     5     6     5   ar
     6     5     4   ar
     7     4     3   ar
     8     8     9   ar
     9     8    13   ar
    10    13    12   ar
    11    12    11   ar
    12    11    10   ar
    13    10     9   ar
    14     1     8    1
    15     1    14    1
    16    14    15    1
    17    16    17    1
    18    16    21    1
    19    21    20    1
    20    20    19    1
    21    19    18    1
    22    18    17    1
    23    16    15    1
    24    19    22    1
    25    22    23    1
    26    23    24    1
    27    22    25   am
    28    25    26    2
    29    25    27   am
    30    28    29   ar
    31    28    33   ar
    32    33    32   ar
    33    32    31   ar
    34    31    30   ar
    35    30    29   ar
    36    27    34    1
    37    28    34    1
    38    34    35    1
    39     1    36    1
    40     3    37    1
    41     4    38    1
    42     5    39    1
    43     6    40    1
    44     7    41    1
    45     9    42    1
    46    10    43    1
    47    11    44    1
    48    12    45    1
    49    13    46    1
    50    14    47    1
    51    14    48    1
    52    15    49    1
    53    15    50    1
    54    16    51    1
    55    17    52    1
    56    17    53    1
    57    18    54    1
    58    18    55    1
    59    19    56    1
    60    20    57    1
    61    20    58    1
    62    21    59    1
    63    21    60    1
    64    23    61    1
    65    23    62    1
    66    24    63    1
    67    24    64    1
    68    24    65    1
    69    27    66    1
    70    29    67    1
    71    30    68    1
    72    31    69    1
    73    32    70    1
    74    33    71    1
    75    34    72    1
    76    35    73    1
    77    35    74    1
    78    35    75    1
