@<TRIPOS>MOLECULE
CCR5_59
 76 79 0 0 0
SMALL
GASTEIGER

@<TRIPOS>ATOM
      1 C1         -4.0056    1.4249   -1.5038 C.3     1  BENZYL1111    0.0141
      2 C2         -4.4235    2.6867   -0.7175 C.ar    1  BENZYL1111   -0.0398
      3 C3         -5.7443    3.1297   -0.8672 C.ar    1  BENZYL1111   -0.0580
      4 C4         -6.2165    4.2434   -0.1675 C.ar    1  BENZYL1111   -0.0615
      5 C5         -5.3627    4.9410    0.6894 C.ar    1  BENZYL1111   -0.0617
      6 C6         -4.0374    4.5237    0.8312 C.ar    1  BENZYL1111   -0.0615
      7 C7         -3.5686    3.4111    0.1258 C.ar    1  BENZYL1111   -0.0580
      8 C          -4.9878    0.2629   -1.2689 C.ar    2  PHENYL2222   -0.0384
      9 C          -5.6443    0.1056   -0.0416 C.ar    2  PHENYL2222   -0.0579
     10 C          -6.5360   -0.9527    0.1558 C.ar    2  PHENYL2222   -0.0601
     11 C          -6.7713   -1.8701   -0.8714 C.ar    2  PHENYL2222   -0.0434
     12 C          -6.1149   -1.7244   -2.0957 C.ar    2  PHENYL2222    0.0413
     13 C          -5.2302   -0.6607   -2.2925 C.ar    2  PHENYL2222   -0.0396
     14 C14        -2.5579    0.8976   -1.2800 C.3     1  BENZYL1111   -0.0017
     15 C15        -2.3635    0.2197    0.1065 C.3     1  BENZYL1111   -0.0310
     16 N16        -0.9356    0.1247    0.5128 N.4     3  CYCLOHEXYL3333    0.2353
     17 C2         -0.0576   -0.6343   -0.4131 C.3     3  CYCLOHEXYL3333   -0.0302
     18 C3          1.4289   -0.4827   -0.0029 C.3     3  CYCLOHEXYL3333    0.0063
     19 C4          1.6523   -0.9407    1.4581 C.3     3  CYCLOHEXYL3333    0.0356
     20 C5          0.6946   -0.1472    2.3855 C.3     3  CYCLOHEXYL3333    0.0063
     21 C6         -0.7743   -0.3197    1.9214 C.3     3  CYCLOHEXYL3333   -0.0302
     22 N22         3.0955   -0.8316    1.7467 N.am    3  CYCLOHEXYL3333   -0.2980
     23 C23         3.7091    0.4176    2.2248 C.3     3  CYCLOHEXYL3333    0.0121
     24 C24         3.7843    0.4767    3.7730 C.3     3  CYCLOHEXYL3333   -0.0493
     25 C25         3.8750   -1.9189    1.4666 C.2     3  CYCLOHEXYL3333    0.2201
     26 O26         3.3873   -2.9551    1.0438 O.2     3  CYCLOHEXYL3333   -0.2752
     27 C27         5.3800   -1.9440    1.6187 C.3     3  CYCLOHEXYL3333    0.0493
     28 C           6.0672   -1.1595    0.4909 C.ar    4  PHENYL4444   -0.0385
     29 C           7.1719   -0.3436    0.7627 C.ar    4  PHENYL4444   -0.0563
     30 C           7.7597    0.4120   -0.2558 C.ar    4  PHENYL4444   -0.0366
     31 C           7.2505    0.3560   -1.5557 C.ar    4  PHENYL4444    0.0879
     32 C           6.1747   -0.4891   -1.8396 C.ar    4  PHENYL4444   -0.0366
     33 C           5.5899   -1.2482   -0.8220 C.ar    4  PHENYL4444   -0.0563
     34 S1          8.0029    1.3110   -2.8506 S.O2    5  SULFONYL5555   -0.0059
     35 O           7.0384    1.5177   -3.9130 O.2     5  SULFONYL5555   -0.1696
     36 O           8.6811    2.4525   -2.2686 O.2     5  SULFONYL5555   -0.1696
     37 Cl37       -6.4007   -2.8760   -3.3845 Cl      2  PHENYL2222   -0.0835
     38 C40         9.2445    0.1439   -3.4276 C.3     5  SULFONYL5555    0.0596
     39 H          -4.0323    1.7721   -2.5155 H       1  BENZYL1111    0.0399
     40 H          -6.3793    2.6249   -1.5051 H       1  BENZYL1111    0.0620
     41 H          -7.1950    4.5499   -0.2839 H       1  BENZYL1111    0.0618
     42 H          -5.7086    5.7594    1.2144 H       1  BENZYL1111    0.0618
     43 H          -3.4012    5.0389    1.4595 H       1  BENZYL1111    0.0618
     44 H          -2.5836    3.1201    0.2268 H       1  BENZYL1111    0.0620
     45 H          -5.4683    0.7762    0.7228 H       2  PHENYL2222    0.0620
     46 H          -7.0208   -1.0565    1.0609 H       2  PHENYL2222    0.0618
     47 H          -7.4280   -2.6528   -0.7260 H       2  PHENYL2222    0.0632
     48 H          -4.7513   -0.5551   -3.2005 H       2  PHENYL2222    0.0635
     49 H          -1.8615    1.7029   -1.3872 H       1  BENZYL1111    0.0326
     50 H          -2.3814    0.1468   -2.0216 H       1  BENZYL1111    0.0326
     51 H          -2.7993   -0.7574    0.0933 H       1  BENZYL1111    0.0815
     52 H          -2.8530    0.8394    0.8285 H       1  BENZYL1111    0.0815
     53 H          -0.6009    1.0860    0.4468 H       3  CYCLOHEXYL3333    0.2033
     54 H          -0.1982   -0.2906   -1.4166 H       3  CYCLOHEXYL3333    0.0815
     55 H          -0.3209   -1.6699   -0.3580 H       3  CYCLOHEXYL3333    0.0815
     56 H           2.0501   -1.0510   -0.6632 H       3  CYCLOHEXYL3333    0.0335
     57 H           1.6912    0.5523   -0.0727 H       3  CYCLOHEXYL3333    0.0335
     58 H           1.4008   -1.9658    1.6336 H       3  CYCLOHEXYL3333    0.0504
     59 H           0.8022   -0.4804    3.3966 H       3  CYCLOHEXYL3333    0.0335
     60 H           0.9499    0.8906    2.3324 H       3  CYCLOHEXYL3333    0.0335
     61 H          -1.0722   -1.3427    2.0196 H       3  CYCLOHEXYL3333    0.0815
     62 H          -1.3990    0.2883    2.5419 H       3  CYCLOHEXYL3333    0.0815
     63 H           3.1566    1.2567    1.8566 H       3  CYCLOHEXYL3333    0.0462
     64 H           4.7116    0.4477    1.8519 H       3  CYCLOHEXYL3333    0.0462
     65 H           2.7951    0.4484    4.1800 H       3  CYCLOHEXYL3333    0.0245
     66 H           4.2882    1.3673    4.0857 H       3  CYCLOHEXYL3333    0.0245
     67 H           4.3361   -0.3673    4.1308 H       3  CYCLOHEXYL3333    0.0245
     68 H           5.7294   -2.9553    1.6252 H       3  CYCLOHEXYL3333    0.0407
     69 H           5.6278   -1.4753    2.5481 H       3  CYCLOHEXYL3333    0.0407
     70 H           7.5543   -0.2998    1.7202 H       4  PHENYL4444    0.0621
     71 H           8.5722    1.0130   -0.0470 H       4  PHENYL4444    0.0637
     72 H           5.8109   -0.5530   -2.8032 H       4  PHENYL4444    0.0637
     73 H           4.8017   -1.8777   -1.0399 H       4  PHENYL4444    0.0621
     74 H           9.7997    0.5812   -4.2310 H       5  SULFONYL5555    0.0468
     75 H           8.7783   -0.7636   -3.7503 H       5  SULFONYL5555    0.0468
     76 H           9.9117   -0.0862   -2.6233 H       5  SULFONYL5555    0.0468
@<TRIPOS>BOND
     1     1     2    1
     2     2     3   ar
     3     2     7   ar
     4     7     6   ar
     5     6     5   ar
     6     5     4   ar
     7     4     3   ar
     8     8     9   ar
     9     8    13   ar
    10    13    12   ar
    11    12    11   ar
    12    11    10   ar
    13    10     9   ar
    14     1     8    1
    15     1    14    1
    16    14    15    1
    17    16    17    1
    18    16    21    1
    19    21    20    1
    20    20    19    1
    21    19    18    1
    22    18    17    1
    23    15    16    1
    24    19    22    1
    25    22    23    1
    26    23    24    1
    27    22    25   am
    28    25    26    2
    29    25    27    1
    30    28    29   ar
    31    28    33   ar
    32    33    32   ar
    33    32    31   ar
    34    31    30   ar
    35    30    29   ar
    36    27    28    1
    37    34    35    2
    38    34    36    2
    39    31    34    1
    40    12    37    1
    41    34    38    1
    42     1    39    1
    43     3    40    1
    44     4    41    1
    45     5    42    1
    46     6    43    1
    47     7    44    1
    48     9    45    1
    49    10    46    1
    50    11    47    1
    51    13    48    1
    52    14    49    1
    53    14    50    1
    54    15    51    1
    55    15    52    1
    56    16    53    1
    57    17    54    1
    58    17    55    1
    59    18    56    1
    60    18    57    1
    61    19    58    1
    62    20    59    1
    63    20    60    1
    64    21    61    1
    65    21    62    1
    66    23    63    1
    67    23    64    1
    68    24    65    1
    69    24    66    1
    70    24    67    1
    71    27    68    1
    72    27    69    1
    73    29    70    1
    74    30    71    1
    75    32    72    1
    76    33    73    1
    77    38    74    1
    78    38    75    1
    79    38    76    1
