@<TRIPOS>MOLECULE
CCR5_49
 69 72 0 0 0
SMALL
GASTEIGER

@<TRIPOS>ATOM
      1 C1         -3.9979    1.4614   -1.4983 C.3     1  BENZYL1111    0.0140
      2 C2         -4.5003    2.7213   -0.7601 C.ar    1  BENZYL1111   -0.0398
      3 C3         -5.8568    3.0478   -0.8904 C.ar    1  BENZYL1111   -0.0580
      4 C4         -6.4020    4.1497   -0.2260 C.ar    1  BENZYL1111   -0.0615
      5 C5         -5.5867    4.9550    0.5720 C.ar    1  BENZYL1111   -0.0617
      6 C6         -4.2274    4.6562    0.6898 C.ar    1  BENZYL1111   -0.0615
      7 C7         -3.6861    3.5542    0.0205 C.ar    1  BENZYL1111   -0.0580
      8 C          -4.9182    0.2549   -1.2384 C.ar    2  PHENYL2222   -0.0398
      9 C          -5.5348    0.0747    0.0062 C.ar    2  PHENYL2222   -0.0580
     10 C          -6.3711   -1.0224    0.2312 C.ar    2  PHENYL2222   -0.0615
     11 C          -6.5944   -1.9530   -0.7869 C.ar    2  PHENYL2222   -0.0617
     12 C          -5.9792   -1.7825   -2.0297 C.ar    2  PHENYL2222   -0.0615
     13 C          -5.1447   -0.6834   -2.2525 C.ar    2  PHENYL2222   -0.0580
     14 C14        -2.5262    1.0203   -1.2429 C.3     1  BENZYL1111   -0.0017
     15 C15        -2.2988    0.4275    0.1771 C.3     1  BENZYL1111   -0.0310
     16 N16        -0.8627    0.3253    0.5564 N.4     3  CYCLOHEXYL3333    0.2353
     17 C2         -0.0180   -0.4616   -0.3788 C.3     3  CYCLOHEXYL3333   -0.0302
     18 C3          1.4778   -0.4432    0.0315 C.3     3  CYCLOHEXYL3333    0.0064
     19 C4          1.6509   -0.9399    1.4869 C.3     3  CYCLOHEXYL3333    0.0368
     20 C5          0.7952   -0.0155    2.3942 C.3     3  CYCLOHEXYL3333    0.0064
     21 C6         -0.6943   -0.0926    1.9733 C.3     3  CYCLOHEXYL3333   -0.0302
     22 N22         3.0880   -1.0710    1.7969 N.am    3  CYCLOHEXYL3333   -0.2853
     23 C23         3.8483   -0.0619    2.5432 C.3     3  CYCLOHEXYL3333    0.0049
     24 N24         5.0510   -2.4134    1.5216 N.am    3  CYCLOHEXYL3333   -0.2951
     25 C25         3.7338   -2.1736    1.3134 C.2     3  CYCLOHEXYL3333    0.3025
     26 O26         3.1165   -2.9973    0.6579 O.2     3  CYCLOHEXYL3333   -0.2526
     27 C27         5.6558   -3.6150    0.9473 C.3     3  CYCLOHEXYL3333    0.0383
     28 C           7.1800   -3.6148    1.1386 C.ar    4  PHENYL4444   -0.0303
     29 C           7.9528   -2.6609    0.4671 C.ar    4  PHENYL4444   -0.0571
     30 C           9.3422   -2.6410    0.6198 C.ar    4  PHENYL4444   -0.0615
     31 C           9.9670   -3.5775    1.4478 C.ar    4  PHENYL4444   -0.0617
     32 C           9.1998   -4.5305    2.1234 C.ar    4  PHENYL4444   -0.0615
     33 C           7.8101   -4.5476    1.9709 C.ar    4  PHENYL4444   -0.0571
     34 H          -4.0254    1.7777   -2.5201 H       1  BENZYL1111    0.0399
     35 H          -6.4637    2.4644   -1.4874 H       1  BENZYL1111    0.0620
     36 H          -7.4058    4.3680   -0.3250 H       1  BENZYL1111    0.0618
     37 H          -5.9857    5.7653    1.0712 H       1  BENZYL1111    0.0618
     38 H          -3.6195    5.2517    1.2737 H       1  BENZYL1111    0.0618
     39 H          -2.6774    3.3519    0.1019 H       1  BENZYL1111    0.0620
     40 H          -5.3704    0.7571    0.7628 H       2  PHENYL2222    0.0620
     41 H          -6.8241   -1.1452    1.1503 H       2  PHENYL2222    0.0618
     42 H          -7.2116   -2.7634   -0.6214 H       2  PHENYL2222    0.0618
     43 H          -6.1410   -2.4684   -2.7836 H       2  PHENYL2222    0.0618
     44 H          -4.6919   -0.5626   -3.1720 H       2  PHENYL2222    0.0620
     45 H          -1.8710    1.8528   -1.3932 H       1  BENZYL1111    0.0326
     46 H          -2.3120    0.2390   -1.9419 H       1  BENZYL1111    0.0326
     47 H          -2.7550   -0.5384    0.2390 H       1  BENZYL1111    0.0815
     48 H          -2.7505    1.1076    0.8687 H       1  BENZYL1111    0.0815
     49 H          -0.5009    1.2749    0.4684 H       3  CYCLOHEXYL3333    0.2033
     50 H          -0.1260   -0.0807   -1.3728 H       3  CYCLOHEXYL3333    0.0815
     51 H          -0.3517   -1.4775   -0.3391 H       3  CYCLOHEXYL3333    0.0815
     52 H           2.0487   -1.0551   -0.6353 H       3  CYCLOHEXYL3333    0.0335
     53 H           1.8330    0.5644   -0.0273 H       3  CYCLOHEXYL3333    0.0335
     54 H           1.2800   -1.9283    1.6612 H       3  CYCLOHEXYL3333    0.0504
     55 H           0.9042   -0.3013    3.4195 H       3  CYCLOHEXYL3333    0.0335
     56 H           1.1356    0.9926    2.2812 H       3  CYCLOHEXYL3333    0.0335
     57 H          -1.0624   -1.0882    2.1082 H       3  CYCLOHEXYL3333    0.0815
     58 H          -1.2558    0.5757    2.5922 H       3  CYCLOHEXYL3333    0.0815
     59 H           3.1926    0.7276    2.8460 H       3  CYCLOHEXYL3333    0.0429
     60 H           4.6413    0.3264    1.9387 H       3  CYCLOHEXYL3333    0.0429
     61 H           4.2768   -0.5159    3.4122 H       3  CYCLOHEXYL3333    0.0429
     62 H           5.5940   -1.7869    2.0526 H       3  CYCLOHEXYL3333    0.1506
     63 H           5.4184   -3.6815   -0.0939 H       3  CYCLOHEXYL3333    0.0512
     64 H           5.2560   -4.4660    1.4581 H       3  CYCLOHEXYL3333    0.0512
     65 H           7.4942   -1.9678   -0.1447 H       4  PHENYL4444    0.0621
     66 H           9.9063   -1.9351    0.1213 H       4  PHENYL4444    0.0618
     67 H          10.9928   -3.5654    1.5601 H       4  PHENYL4444    0.0618
     68 H           9.6596   -5.2225    2.7356 H       4  PHENYL4444    0.0618
     69 H           7.2465   -5.2507    2.4739 H       4  PHENYL4444    0.0621
@<TRIPOS>BOND
     1     1     2    1
     2     2     3   ar
     3     2     7   ar
     4     7     6   ar
     5     6     5   ar
     6     5     4   ar
     7     4     3   ar
     8     8     9   ar
     9     8    13   ar
    10    13    12   ar
    11    12    11   ar
    12    11    10   ar
    13    10     9   ar
    14     1     8    1
    15     1    14    1
    16    14    15    1
    17    17    16    1
    18    21    16    1
    19    20    21    1
    20    19    20    1
    21    19    18    1
    22    18    17    1
    23    16    15    1
    24    22    19    1
    25    22    23    1
    26    25    24   am
    27    22    25   am
    28    25    26    2
    29    24    27    1
    30    28    29   ar
    31    28    33   ar
    32    33    32   ar
    33    32    31   ar
    34    31    30   ar
    35    30    29   ar
    36    28    27    1
    37     1    34    1
    38     3    35    1
    39     4    36    1
    40     5    37    1
    41     6    38    1
    42     7    39    1
    43     9    40    1
    44    10    41    1
    45    11    42    1
    46    12    43    1
    47    13    44    1
    48    14    45    1
    49    14    46    1
    50    15    47    1
    51    15    48    1
    52    16    49    1
    53    17    50    1
    54    17    51    1
    55    18    52    1
    56    18    53    1
    57    19    54    1
    58    20    55    1
    59    20    56    1
    60    21    57    1
    61    21    58    1
    62    23    59    1
    63    23    60    1
    64    23    61    1
    65    24    62    1
    66    27    63    1
    67    27    64    1
    68    29    65    1
    69    30    66    1
    70    31    67    1
    71    32    68    1
    72    33    69    1
