@<TRIPOS>MOLECULE
31
 69 72 0 0 0
SMALL
GASTEIGER

@<TRIPOS>ATOM
      1 C1         -3.9952    1.4276   -1.5057 C.3     1  BENZYL111    0.0140
      2 C2         -4.4254    2.6755   -0.7031 C.ar    1  BENZYL111   -0.0398
      3 C3         -5.7674    3.0697   -0.7871 C.ar    1  BENZYL111   -0.0580
      4 C4         -6.2484    4.1570   -0.0526 C.ar    1  BENZYL111   -0.0615
      5 C5         -5.3815    4.8819    0.7678 C.ar    1  BENZYL111   -0.0617
      6 C6         -4.0339    4.5210    0.8345 C.ar    1  BENZYL111   -0.0615
      7 C7         -3.5569    3.4350    0.0941 C.ar    1  BENZYL111   -0.0580
      8 C          -4.9796    0.2608   -1.3048 C.ar    2  PHENYL222   -0.0398
      9 C          -5.6033    0.0477   -0.0689 C.ar    2  PHENYL222   -0.0580
     10 C          -6.4997   -1.0113    0.1001 C.ar    2  PHENYL222   -0.0615
     11 C          -6.7780   -1.8701   -0.9663 C.ar    2  PHENYL222   -0.0617
     12 C          -6.1560   -1.6672   -2.2008 C.ar    2  PHENYL222   -0.0615
     13 C          -5.2598   -0.6073   -2.3669 C.ar    2  PHENYL222   -0.0580
     14 C14        -2.5515    0.8931   -1.2709 C.3     1  BENZYL111   -0.0017
     15 C15        -2.3505    0.2664    0.1381 C.3     1  BENZYL111   -0.0310
     16 N16        -0.9108    0.1638    0.4995 N.4     3  CYCLOHEXYL333    0.2353
     17 C2         -0.1394   -0.8263   -0.2938 C.3     3  CYCLOHEXYL333   -0.0302
     18 C3          1.3774   -0.7231    0.0075 C.3     3  CYCLOHEXYL333    0.0063
     19 C4          1.6531   -0.9035    1.5208 C.3     3  CYCLOHEXYL333    0.0353
     20 C5          0.8246    0.1589    2.2887 C.3     3  CYCLOHEXYL333    0.0063
     21 C6         -0.6821    0.0134    1.9591 C.3     3  CYCLOHEXYL333   -0.0302
     22 N22         3.1080   -0.8447    1.7418 N.am    3  CYCLOHEXYL333   -0.3008
     23 C23         3.7748    0.4040    2.1363 C.3     3  CYCLOHEXYL333    0.0035
     24 N           7.7067    1.4731   -2.3033 N.pl3   5  NO2555      0.0564
     25 C25         3.8262   -1.9717    1.4622 C.2     3  CYCLOHEXYL333    0.2199
     26 O26         3.2664   -3.0002    1.1166 O.2     3  CYCLOHEXYL333   -0.2752
     27 C27         5.3337   -2.0522    1.5349 C.3     3  CYCLOHEXYL333    0.0493
     28 C           5.9883   -1.1167    0.5080 C.ar    4  PHENYL444   -0.0385
     29 C           7.0851   -0.3207    0.8528 C.ar    4  PHENYL444   -0.0560
     30 C           7.6553    0.5449   -0.0855 C.ar    4  PHENYL444   -0.0312
     31 C           7.1518    0.6283   -1.3918 C.ar    4  PHENYL444    0.1262
     32 C           6.0608   -0.1841   -1.7325 C.ar    4  PHENYL444   -0.0312
     33 C           5.4886   -1.0499   -0.7960 C.ar    4  PHENYL444   -0.0560
     34 O           7.2559    1.4807   -3.4284 O.2     5  NO2555     -0.1261
     35 O           8.6262    2.1782   -1.9476 O.2     5  NO2555     -0.1261
     36 H          -4.0068    1.7955   -2.5104 H       1  BENZYL111    0.0399
     37 H          -6.4116    2.5482   -1.4019 H       1  BENZYL111    0.0620
     38 H          -7.2432    4.4239   -0.1164 H       1  BENZYL111    0.0618
     39 H          -5.7341    5.6786    1.3209 H       1  BENZYL111    0.0618
     40 H          -3.3873    5.0583    1.4330 H       1  BENZYL111    0.0618
     41 H          -2.5553    3.1898    0.1347 H       1  BENZYL111    0.0620
     42 H          -5.3994    0.6774    0.7229 H       2  PHENYL222    0.0620
     43 H          -6.9565   -1.1591    1.0136 H       2  PHENYL222    0.0618
     44 H          -7.4406   -2.6515   -0.8425 H       2  PHENYL222    0.0618
     45 H          -6.3583   -2.3001   -2.9904 H       2  PHENYL222    0.0618
     46 H          -4.8009   -0.4635   -3.2800 H       2  PHENYL222    0.0620
     47 H          -1.8475    1.6859   -1.4148 H       1  BENZYL111    0.0326
     48 H          -2.3910    0.1112   -1.9835 H       1  BENZYL111    0.0326
     49 H          -2.8034   -0.7024    0.1725 H       1  BENZYL111    0.0815
     50 H          -2.8195    0.9120    0.8510 H       1  BENZYL111    0.0815
     51 H          -0.5291    1.0712    0.2325 H       3  CYCLOHEXYL333    0.2033
     52 H          -0.3157   -0.6748   -1.3383 H       3  CYCLOHEXYL333    0.0815
     53 H          -0.4690   -1.8059   -0.0168 H       3  CYCLOHEXYL333    0.0815
     54 H           1.9130   -1.4607   -0.5528 H       3  CYCLOHEXYL333    0.0335
     55 H           1.7124    0.2510   -0.2818 H       3  CYCLOHEXYL333    0.0335
     56 H           1.3413   -1.8557    1.8963 H       3  CYCLOHEXYL333    0.0504
     57 H           0.9818    0.0564    3.3421 H       3  CYCLOHEXYL333    0.0335
     58 H           1.1485    1.1313    1.9813 H       3  CYCLOHEXYL333    0.0335
     59 H          -1.0407   -0.9385    2.2911 H       3  CYCLOHEXYL333    0.0815
     60 H          -1.2193    0.7850    2.4700 H       3  CYCLOHEXYL333    0.0815
     61 H           3.0398    1.1620    2.3098 H       3  CYCLOHEXYL333    0.0429
     62 H           4.4567    0.7169    1.3734 H       3  CYCLOHEXYL333    0.0429
     63 H           4.3281    0.2379    3.0369 H       3  CYCLOHEXYL333    0.0429
     64 H           5.6543   -3.0593    1.3682 H       3  CYCLOHEXYL333    0.0407
     65 H           5.6378   -1.7400    2.5121 H       3  CYCLOHEXYL333    0.0407
     66 H           7.4763   -0.3725    1.8064 H       4  PHENYL444    0.0621
     67 H           8.4592    1.1316    0.1874 H       4  PHENYL444    0.0640
     68 H           5.6747   -0.1422   -2.6886 H       4  PHENYL444    0.0640
     69 H           4.6908   -1.6447   -1.0694 H       4  PHENYL444    0.0621
@<TRIPOS>BOND
     1     1     2    1
     2     2     3   ar
     3     2     7   ar
     4     7     6   ar
     5     6     5   ar
     6     5     4   ar
     7     4     3   ar
     8     8     9   ar
     9     8    13   ar
    10    13    12   ar
    11    12    11   ar
    12    11    10   ar
    13    10     9   ar
    14     1     8    1
    15     1    14    1
    16    14    15    1
    17    16    17    1
    18    16    21    1
    19    21    20    1
    20    20    19    1
    21    19    18    1
    22    18    17    1
    23    15    16    1
    24    19    22    1
    25    22    23    1
    26    24    34    2
    27    22    25   am
    28    25    26    2
    29    25    27    1
    30    28    29   ar
    31    28    33   ar
    32    33    32   ar
    33    32    31   ar
    34    31    30   ar
    35    30    29   ar
    36    27    28    1
    37    24    35    2
    38    31    24    1
    39     1    36    1
    40     3    37    1
    41     4    38    1
    42     5    39    1
    43     6    40    1
    44     7    41    1
    45     9    42    1
    46    10    43    1
    47    11    44    1
    48    12    45    1
    49    13    46    1
    50    14    47    1
    51    14    48    1
    52    15    49    1
    53    15    50    1
    54    16    51    1
    55    17    52    1
    56    17    53    1
    57    18    54    1
    58    18    55    1
    59    19    56    1
    60    20    57    1
    61    20    58    1
    62    21    59    1
    63    21    60    1
    64    23    61    1
    65    23    62    1
    66    23    63    1
    67    27    64    1
    68    27    65    1
    69    29    66    1
    70    30    67    1
    71    32    68    1
    72    33    69    1
