@<TRIPOS>MOLECULE
CCR5_45
 70 73 0 0 0
SMALL
GASTEIGER

@<TRIPOS>ATOM
      1 C1         -4.0435    1.4693   -1.4991 C.3     1  BENZYL1111    0.0140
      2 C2         -4.4393    2.6807   -0.6269 C.ar    1  BENZYL1111   -0.0398
      3 C3         -5.7678    3.1195   -0.7008 C.ar    1  BENZYL1111   -0.0580
      4 C4         -6.2180    4.1935    0.0719 C.ar    1  BENZYL1111   -0.0615
      5 C5         -5.3347    4.8536    0.9287 C.ar    1  BENZYL1111   -0.0617
      6 C6         -4.0034    4.4373    0.9996 C.ar    1  BENZYL1111   -0.0615
      7 C7         -3.5569    3.3644    0.2220 C.ar    1  BENZYL1111   -0.0580
      8 C          -5.0146    0.2914   -1.3004 C.ar    2  PHENYL2222   -0.0398
      9 C          -5.6084    0.0468   -0.0557 C.ar    2  PHENYL2222   -0.0580
     10 C          -6.4930   -1.0227    0.1102 C.ar    2  PHENYL2222   -0.0615
     11 C          -6.7885   -1.8608   -0.9679 C.ar    2  PHENYL2222   -0.0617
     12 C          -6.1958   -1.6265   -2.2113 C.ar    2  PHENYL2222   -0.0615
     13 C          -5.3121   -0.5557   -2.3746 C.ar    2  PHENYL2222   -0.0580
     14 C14        -2.5855    0.9413   -1.3604 C.3     1  BENZYL1111   -0.0017
     15 C15        -2.3297    0.1871   -0.0241 C.3     1  BENZYL1111   -0.0310
     16 N16        -0.8871    0.0893    0.3258 N.4     3  CYCLOHEXYL3333    0.2353
     17 C2         -0.0202   -0.5644   -0.6876 C.3     3  CYCLOHEXYL3333   -0.0302
     18 C3          1.4712   -0.3711   -0.3109 C.3     3  CYCLOHEXYL3333    0.0064
     19 C4          1.7502   -0.9567    1.0976 C.3     3  CYCLOHEXYL3333    0.0374
     20 C5          0.8087   -0.2875    2.1275 C.3     3  CYCLOHEXYL3333    0.0064
     21 C6         -0.6688   -0.4565    1.6917 C.3     3  CYCLOHEXYL3333   -0.0302
     22 N22         3.1623   -0.8383    1.5054 N.am    3  CYCLOHEXYL3333   -0.2782
     23 C1          3.8908    0.4312    1.3610 C.3     5  ALLYL5555    0.0343
     24 C2          4.6637    0.8028    2.6022 C.2     5  ALLYL5555   -0.0739
     25 C25         3.7246   -1.9025    2.1543 C.2     3  CYCLOHEXYL3333    0.3070
     26 O26         2.9703   -2.7122    2.6702 O.2     3  CYCLOHEXYL3333   -0.2523
     27 N27         4.9988   -2.1674    2.2968 N.am    3  CYCLOHEXYL3333   -0.2693
     28 C           6.0004   -1.5379    1.6413 C.ar    4  PHENYL4444    0.0348
     29 C           7.0708   -0.9914    2.3560 C.ar    4  PHENYL4444   -0.0404
     30 C           8.1042   -0.3351    1.6810 C.ar    4  PHENYL4444   -0.0600
     31 C           8.0734   -0.2324    0.2872 C.ar    4  PHENYL4444   -0.0616
     32 C           7.0210   -0.8058   -0.4321 C.ar    4  PHENYL4444   -0.0600
     33 C           5.9946   -1.4716    0.2442 C.ar    4  PHENYL4444   -0.0404
     34 C3          5.7548    1.5772    2.5624 C.2     5  ALLYL5555   -0.1012
     35 H          -4.1059    1.8733   -2.4879 H       1  BENZYL1111    0.0399
     36 H          -6.4252    2.6415   -1.3367 H       1  BENZYL1111    0.0620
     37 H          -7.2020    4.4983    0.0094 H       1  BENZYL1111    0.0618
     38 H          -5.6634    5.6437    1.5056 H       1  BENZYL1111    0.0618
     39 H          -3.3460    4.9239    1.6290 H       1  BENZYL1111    0.0618
     40 H          -2.5683    3.0728    0.2733 H       1  BENZYL1111    0.0620
     41 H          -5.3912    0.6607    0.7449 H       2  PHENYL2222    0.0620
     42 H          -6.9284   -1.1935    1.0302 H       2  PHENYL2222    0.0618
     43 H          -7.4422   -2.6501   -0.8463 H       2  PHENYL2222    0.0618
     44 H          -6.4105   -2.2443   -3.0096 H       2  PHENYL2222    0.0618
     45 H          -4.8754   -0.3883   -3.2946 H       2  PHENYL2222    0.0620
     46 H          -1.8985    1.7568   -1.4494 H       1  BENZYL1111    0.0326
     47 H          -2.4362    0.2335   -2.1489 H       1  BENZYL1111    0.0326
     48 H          -2.7533   -0.7939   -0.0786 H       1  BENZYL1111    0.0815
     49 H          -2.7991    0.7579    0.7497 H       1  BENZYL1111    0.0815
     50 H          -0.5739    1.0600    0.3245 H       3  CYCLOHEXYL3333    0.2033
     51 H          -0.2121   -0.1545   -1.6572 H       3  CYCLOHEXYL3333    0.0815
     52 H          -0.2399   -1.6114   -0.7088 H       3  CYCLOHEXYL3333    0.0815
     53 H           2.0985   -0.8444   -1.0371 H       3  CYCLOHEXYL3333    0.0335
     54 H           1.6883    0.6765   -0.2961 H       3  CYCLOHEXYL3333    0.0335
     55 H           1.5504   -2.0071    1.0578 H       3  CYCLOHEXYL3333    0.0505
     56 H           0.9582   -0.7166    3.0962 H       3  CYCLOHEXYL3333    0.0335
     57 H           1.0362    0.7570    2.1733 H       3  CYCLOHEXYL3333    0.0335
     58 H          -0.9427   -1.4904    1.7206 H       3  CYCLOHEXYL3333    0.0815
     59 H          -1.2844    0.0915    2.3741 H       3  CYCLOHEXYL3333    0.0815
     60 H           4.5569    0.3718    0.5257 H       5  ALLYL5555    0.0508
     61 H           3.1617    1.1978    1.2011 H       5  ALLYL5555    0.0508
     62 H           4.3394    0.4470    3.5151 H       5  ALLYL5555    0.0582
     63 H           5.2469   -2.8795    2.9297 H       3  CYCLOHEXYL3333    0.1564
     64 H           7.0980   -1.0728    3.3844 H       4  PHENYL4444    0.0636
     65 H           8.8895    0.0734    2.2115 H       4  PHENYL4444    0.0618
     66 H           8.8273    0.2665   -0.2105 H       4  PHENYL4444    0.0618
     67 H           7.0017   -0.7377   -1.4617 H       4  PHENYL4444    0.0618
     68 H           5.2305   -1.9154   -0.2888 H       4  PHENYL4444    0.0636
     69 H           6.0953    1.9430    1.6595 H       5  ALLYL5555    0.0532
     70 H           6.2555    1.8084    3.4347 H       5  ALLYL5555    0.0532
@<TRIPOS>BOND
     1     1     2    1
     2     2     3   ar
     3     2     7   ar
     4     7     6   ar
     5     6     5   ar
     6     5     4   ar
     7     4     3   ar
     8     8     9   ar
     9     8    13   ar
    10    13    12   ar
    11    12    11   ar
    12    11    10   ar
    13    10     9   ar
    14     1     8    1
    15     1    14    1
    16    14    15    1
    17    16    17    1
    18    16    21    1
    19    21    20    1
    20    20    19    1
    21    19    18    1
    22    18    17    1
    23    15    16    1
    24    19    22    1
    25    23    24    1
    26    24    34    2
    27    22    25   am
    28    25    26    2
    29    25    27   am
    30    28    29   ar
    31    28    33   ar
    32    33    32   ar
    33    32    31   ar
    34    31    30   ar
    35    30    29   ar
    36    27    28    1
    37    22    23    1
    38     1    35    1
    39     3    36    1
    40     4    37    1
    41     5    38    1
    42     6    39    1
    43     7    40    1
    44     9    41    1
    45    10    42    1
    46    11    43    1
    47    12    44    1
    48    13    45    1
    49    14    46    1
    50    14    47    1
    51    15    48    1
    52    15    49    1
    53    16    50    1
    54    17    51    1
    55    17    52    1
    56    18    53    1
    57    18    54    1
    58    19    55    1
    59    20    56    1
    60    20    57    1
    61    21    58    1
    62    21    59    1
    63    23    60    1
    64    23    61    1
    65    24    62    1
    66    27    63    1
    67    29    64    1
    68    30    65    1
    69    31    66    1
    70    32    67    1
    71    33    68    1
    72    34    69    1
    73    34    70    1
