@<TRIPOS>MOLECULE
01
 48 51 0 0 0
SMALL
GASTEIGER

@<TRIPOS>ATOM
      1 ****        2.3151   -1.2349   -1.4103 C.3     1  WATER21111    0.0086
      2 ****        3.8490   -1.2142   -1.5052 C.3     1  WATER21111   -0.0136
      3 ****        4.4111    0.2013   -1.6727 C.3     1  WATER21111   -0.0118
      4 ****       -0.2102    3.2461    0.9363 O.2     1  WATER21111   -0.2906
      5 ****        3.8231    1.2135   -0.6797 C.3     1  WATER21111    0.0290
      6 C5          2.3372    1.0928   -0.3852 C.2     1  WATER21111   -0.0616
      7 C6          1.6425    2.2224   -0.1030 C.1     1  WATER21111   -0.1297
      8 C7          0.2232    2.2547    0.3568 C.1     1  WATER21111    0.2598
      9 ****       -0.6225    0.9770    0.1661 C.3     1  WATER21111   -0.0428
     10 ****        0.1281   -0.0823   -0.7255 C.3     1  WATER21111   -0.0081
     11 ****        1.6584   -0.2967   -0.3362 C.3     1  WATER21111   -0.0091
     12 ****       -0.7215   -1.3747   -0.9087 C.3     1  WATER21111   -0.0031
     13 ****       -2.1994   -1.1526   -1.3104 C.3     1  WATER21111    0.0184
     14 ****       -2.9165   -0.1035   -0.4216 C.3     1  WATER21111   -0.1186
     15 ****       -2.0335    1.2062   -0.4466 C.3     1  WATER21111   -0.0159
     16 ****       -2.9920    2.3363    0.0127 C.3     1  WATER21111    0.0012
     17 ****       -4.3749    1.9400   -0.5561 C.3     1  WATER21111   -0.0536
     18 ****       -4.2690    0.4574   -0.9514 C.2     1  WATER21111    0.2323
     19 ****       -3.2255   -0.7033    0.9812 C.3     1  WATER21111    0.0535
     20 ****        1.8987   -0.8324    1.1322 C.3     1  WATER21111    0.1807
     21 ****       -5.1140   -0.1664   -1.5711 O.2     1  WATER21111   -0.2734
     22 ****        1.9228   -0.9602   -2.4183 H       1  WATER21111    0.0048
     23 ****        2.0071   -2.2911   -1.2480 H       1  WATER21111    0.0259
     24 ****        4.3056   -1.7038   -0.6160 H       1  WATER21111    0.0094
     25 ****        4.1579   -1.8359   -2.3769 H       1  WATER21111    0.0114
     26 ****        4.0527    2.2341   -1.0659 H       1  WATER21111    0.0134
     27 ****        4.2285    0.5550   -2.7135 H       1  WATER21111    0.0103
     28 ****        2.1204    3.2053   -0.1673 H       1  WATER21111    0.0777
     29 ****        1.7072   -2.4616    2.1754 H       1  WATER21111    0.1865
     30 ****       -0.7424    0.5695    1.1993 H       1  WATER21111    0.0379
     31 ****        0.1786    0.3717   -1.7522 H       1  WATER21111    0.0098
     32 ****       -0.2734   -1.9997   -1.7141 H       1  WATER21111    0.0104
     33 ****       -0.7004   -2.0010    0.0076 H       1  WATER21111    0.0243
     34 ****       -2.2488   -0.8449   -2.3797 H       1  WATER21111    0.0097
     35 ****       -2.7249   -2.1325   -1.2621 H       1  WATER21111    0.0188
     36 ****       -1.8405    1.4540   -1.5269 H       1  WATER21111    0.0102
     37 ****       -2.6797    3.3219   -0.3901 H       1  WATER21111    0.0248
     38 ****       -3.0332    2.4435    1.1159 H       1  WATER21111    0.0255
     39 ****       -5.1817    2.0862    0.1924 H       1  WATER21111    0.0364
     40 ****       -4.6411    2.5619   -1.4368 H       1  WATER21111    0.0360
     41 ****       -3.9249   -1.5606    0.8924 H       1  WATER21111    0.0061
     42 ****       -2.3224   -1.0799    1.4992 H       1  WATER21111    0.0008
     43 ****       -3.6973    0.0325    1.6633 H       1  WATER21111   -0.0035
     44 ****        1.3607   -0.1784    1.8701 H       1  WATER21111   -0.0195
     45 O42         1.5127   -2.1617    1.2983 O.3     1  WATER21111   -0.3238
     46 ****        2.9869   -0.7190    1.3923 H       1  WATER21111   -0.0183
     47 ****        4.3684    1.1341    0.2919 H       1  WATER21111    0.0133
     48 ****        5.5180    0.1778   -1.5521 H       1  WATER21111    0.0103
@<TRIPOS>BOND
     1     1    23    1
     2     1    11    1
     3    10    11    1
     4    10    31    1
     5    10    12    1
     6    12    33    1
     7    12    13    1
     8    13    34    1
     9    13    35    1
    10    13    14    1
    11    14    15    1
    12    15    36    1
    13    15    16    1
    14    16    38    1
    15    16    37    1
    16    16    17    1
    17    17    39    1
    18    17    18    1
    19    18    21    2
    20    14    18    1
    21    17    40    1
    22     9    15    1
    23     9    10    1
    24     9    30    1
    25     8     9    1
    26     8     4    2
    27     7     8    2
    28     6     7    2
    29     5     6    1
    30     5    26    1
    31     5    47    1
    32     3     5    1
    33     3    27    1
    34     2     3    1
    35     1     2    1
    36     2    24    1
    37     2    25    1
    38     3    48    1
    39     6    11    1
    40     7    28    1
    41    14    19    1
    42    19    41    1
    43    19    42    1
    44    19    43    1
    45    12    32    1
    46    11    20    1
    47    20    46    1
    48    20    45    1
    49    45    29    1
    50    20    44    1
    51     1    22    1
