@<TRIPOS>MOLECULE
03
 46 49 0 0 0
SMALL
GASTEIGER

@<TRIPOS>ATOM
      1 ****        2.3493   -1.0635   -1.6723 C.3     1  WATER21111    0.0161
      2 ****        3.8806   -1.1658   -1.5398 C.3     1  WATER21111   -0.0176
      3 ****        4.5715    0.1594   -1.1930 C.3     1  WATER21111   -0.0114
      4 ****       -0.2109    3.5009   -0.6558 O.2     1  WATER21111   -0.2794
      5 ****        3.8572    0.9462   -0.0829 C.3     1  WATER21111    0.0254
      6 C5          2.3515    1.0236   -0.2684 C.2     1  WATER21111   -0.0639
      7 C6          1.7215    2.2186   -0.1907 C.1     1  WATER21111   -0.1218
      8 C7          0.2501    2.4025   -0.3700 C.1     1  WATER21111    0.2581
      9 ****       -0.5943    1.1249   -0.1602 C.3     1  WATER21111   -0.0423
     10 ****        0.0950   -0.0350   -0.9738 C.3     1  WATER21111   -0.0100
     11 ****        1.6001   -0.2975   -0.5235 C.3     1  WATER21111   -0.0644
     12 ****       -0.7564   -1.3361   -1.0824 C.3     1  WATER21111   -0.0068
     13 ****       -2.2828   -1.1689   -1.2523 C.3     1  WATER21111    0.0211
     14 ****       -2.8807   -0.1172   -0.2847 C.3     1  WATER21111   -0.1222
     15 ****       -2.0947    1.2279   -0.5396 C.3     1  WATER21111   -0.0169
     16 ****       -3.0139    2.3374    0.0391 C.3     1  WATER21111   -0.0008
     17 ****       -4.4556    1.8390   -0.2152 C.3     1  WATER21111   -0.0524
     18 ****       -4.3401    0.3470   -0.5673 C.2     1  WATER21111    0.2333
     19 ****       -2.8848   -0.6567    1.1754 C.3     1  WATER21111    0.0539
     20 C20         1.6136   -1.0569    0.8337 C.2     1  WATER21111    0.2679
     21 ****       -5.2468   -0.3502   -0.9892 O.2     1  WATER21111   -0.2705
     22 ****        2.1269   -0.5581   -2.6409 H       1  WATER21111    0.0085
     23 ****        1.9505   -2.0971   -1.7702 H       1  WATER21111    0.0216
     24 ****        4.1556   -1.9384   -0.7876 H       1  WATER21111    0.0208
     25 ****        4.2863   -1.5401   -2.5083 H       1  WATER21111    0.0128
     26 ****        4.3008    1.9670   -0.0386 H       1  WATER21111    0.0162
     27 ****        4.6455    0.7944   -2.1055 H       1  WATER21111    0.0113
     28 ****        2.2804    3.1400   -0.0004 H       1  WATER21111    0.0817
     29 ****        1.2951   -0.4352    1.6983 H       1  WATER21111    0.0192
     30 ****       -0.5299    0.9203    0.9355 H       1  WATER21111    0.0312
     31 ****        0.1601    0.3495   -2.0257 H       1  WATER21111    0.0203
     32 ****       -0.3993   -1.9131   -1.9668 H       1  WATER21111    0.0147
     33 ****       -0.5854   -1.9980   -0.2057 H       1  WATER21111    0.0108
     34 ****       -2.5087   -0.8917   -2.3070 H       1  WATER21111    0.0134
     35 ****       -2.7618   -2.1622   -1.1010 H       1  WATER21111    0.0224
     36 ****       -2.1071    1.4100   -1.6484 H       1  WATER21111    0.0192
     37 ****       -2.8557    3.3113   -0.4668 H       1  WATER21111    0.0350
     38 ****       -2.8348    2.5135    1.1201 H       1  WATER21111    0.0150
     39 ****       -5.0996    1.9785    0.6783 H       1  WATER21111    0.0364
     40 ****       -4.9345    2.4020   -1.0441 H       1  WATER21111    0.0388
     41 ****       -3.5199   -1.5634    1.2538 H       1  WATER21111    0.0093
     42 ****       -1.8769   -0.9389    1.5360 H       1  WATER21111   -0.0042
     43 ****       -3.2814    0.0827    1.9003 H       1  WATER21111   -0.0028
     44 O42         1.9408   -2.2190    1.0029 O.2     1  WATER21111   -0.2755
     45 ****        4.0771    0.4886    0.9104 H       1  WATER21111    0.0149
     46 ****        5.6199   -0.0427   -0.8774 H       1  WATER21111    0.0140
@<TRIPOS>BOND
     1     1    23    1
     2     1    22    1
     3     1    11    1
     4     6    11    1
     5     5     6    1
     6     5    45    1
     7     5    26    1
     8     3     5    1
     9     3    46    1
    10     3    27    1
    11     2     3    1
    12     2    25    1
    13     2    24    1
    14     1     2    1
    15     6     7    2
    16     7     8    2
    17     8     4    2
    18     8     9    1
    19     9    30    1
    20     9    15    1
    21    15    36    1
    22    15    16    1
    23    16    37    1
    24    16    38    1
    25    16    17    1
    26    17    40    1
    27    17    18    1
    28    18    21    2
    29    14    18    1
    30    13    14    1
    31    13    34    1
    32    13    35    1
    33    12    13    1
    34    12    33    1
    35    12    32    1
    36    10    12    1
    37    10    31    1
    38    10    11    1
    39     9    10    1
    40    14    15    1
    41    14    19    1
    42    19    41    1
    43    19    43    1
    44    19    42    1
    45    17    39    1
    46     7    28    1
    47    11    20    1
    48    20    44    2
    49    20    29    1
