@<TRIPOS>MOLECULE
11
 47 50 0 0 0
SMALL
GASTEIGER

@<TRIPOS>ATOM
      1 ****        2.3393   -1.0992   -1.6361 C.3     1  WATER21111    0.0167
      2 ****        3.8766   -1.1543   -1.5787 C.3     1  WATER21111   -0.0150
      3 ****        4.5362    0.2078   -1.3314 C.3     1  WATER21111   -0.0106
      4 ****       -0.0922    3.0691    0.6481 H       1  WATER21111    0.0120
      5 ****        3.8646    1.0049   -0.2027 C.3     1  WATER21111    0.0358
      6 C5          2.3489    1.0324   -0.2837 C.2     1  WATER21111   -0.1194
      7 C6          1.6891    2.2051   -0.1476 C.2     1  WATER21111   -0.0697
      8 C7          0.2017    2.3898   -0.1856 C.3     1  WATER21111    0.0297
      9 ****       -0.5920    1.0657   -0.0672 C.3     1  WATER21111   -0.0164
     10 ****        0.1009   -0.0710   -0.9037 C.3     1  WATER21111   -0.0130
     11 ****        1.6181   -0.3091   -0.4865 C.3     1  WATER21111   -0.0493
     12 ****       -0.7543   -1.3712   -0.9902 C.3     1  WATER21111   -0.0069
     13 ****       -2.2723   -1.1889   -1.2289 C.3     1  WATER21111    0.0222
     14 ****       -2.9063   -0.1153   -0.3061 C.3     1  WATER21111   -0.1177
     15 ****       -2.0702    1.2045   -0.5146 C.3     1  WATER21111   -0.0272
     16 ****       -2.9784    2.3460    0.0103 C.3     1  WATER21111   -0.0017
     17 ****       -4.4155    1.8976   -0.3428 C.3     1  WATER21111   -0.0515
     18 ****       -4.3281    0.3978   -0.6814 C.2     1  WATER21111    0.2324
     19 ****       -3.0179   -0.6491    1.1513 C.3     1  WATER21111    0.0543
     20 C20         1.6777   -1.0370    0.8848 C.2     1  WATER21111    0.2697
     21 ****       -5.2321   -0.2663   -1.1589 O.2     1  WATER21111   -0.2707
     22 ****        2.0580   -0.6412   -2.6134 H       1  WATER21111    0.0052
     23 ****        1.9671   -2.1470   -1.6758 H       1  WATER21111    0.0179
     24 ****        4.2120   -1.8797   -0.8043 H       1  WATER21111    0.0184
     25 ****        4.2453   -1.5645   -2.5475 H       1  WATER21111    0.0090
     26 ****        4.2764    2.0403   -0.2185 H       1  WATER21111    0.0081
     27 ****        4.5225    0.8091   -2.2693 H       1  WATER21111    0.0080
     28 ****        2.2358    3.1428   -0.0048 H       1  WATER21111    0.0563
     29 ****        1.3837   -0.3986    1.7462 H       1  WATER21111    0.0174
     30 ****       -0.5784    0.7899    1.0141 H       1  WATER21111    0.0165
     31 ****        0.1445    0.3162   -1.9554 H       1  WATER21111    0.0168
     32 ****       -0.3746   -1.9917   -1.8341 H       1  WATER21111    0.0130
     33 ****       -0.6221   -1.9930   -0.0779 H       1  WATER21111    0.0100
     34 ****       -2.4464   -0.9253   -2.2969 H       1  WATER21111    0.0111
     35 ****       -2.7699   -2.1737   -1.0845 H       1  WATER21111    0.0200
     36 ****       -2.0261    1.3875   -1.6237 H       1  WATER21111    0.0123
     37 ****       -2.7373    3.3131   -0.4780 H       1  WATER21111    0.0157
     38 ****       -2.8666    2.5146    1.1015 H       1  WATER21111    0.0163
     39 ****       -5.1152    2.0651    0.5026 H       1  WATER21111    0.0364
     40 ****       -4.8140    2.4713   -1.2060 H       1  WATER21111    0.0366
     41 ****       -3.6927   -1.5294    1.1919 H       1  WATER21111    0.0078
     42 ****       -2.0445   -0.9702    1.5698 H       1  WATER21111    0.0001
     43 ****       -3.4274    0.1075    1.8508 H       1  WATER21111   -0.0050
     44 O42         2.0153   -2.1941    1.0713 O.2     1  WATER21111   -0.2852
     45 ****        4.1664    0.5855    0.7863 H       1  WATER21111    0.0086
     46 ****        5.6112    0.0583   -1.0825 H       1  WATER21111    0.0096
     47 ****       -0.0522    2.9281   -1.1291 H       1  WATER21111    0.0154
@<TRIPOS>BOND
     1     1    23    1
     2     1    11    1
     3    10    11    1
     4     9    10    1
     5     8     9    1
     6     8    47    1
     7     8     4    1
     8     7     8    1
     9     6     7    2
    10     6    11    1
    11     5     6    1
    12     3     5    1
    13     3    46    1
    14     3    27    1
    15     2     3    1
    16     2    24    1
    17     2    25    1
    18     1     2    1
    19     5    45    1
    20     5    26    1
    21     7    28    1
    22     9    30    1
    23     9    15    1
    24    15    36    1
    25    15    16    1
    26    16    38    1
    27    16    37    1
    28    16    17    1
    29    17    39    1
    30    17    40    1
    31    17    18    1
    32    18    21    2
    33    14    18    1
    34    13    14    1
    35    13    35    1
    36    13    34    1
    37    12    13    1
    38    12    33    1
    39    10    12    1
    40    12    32    1
    41    14    19    1
    42    19    41    1
    43    19    42    1
    44    19    43    1
    45    14    15    1
    46    10    31    1
    47    11    20    1
    48    20    44    2
    49    20    29    1
    50     1    22    1
