@<TRIPOS>MOLECULE
12
 48 51 0 0 0
SMALL
GASTEIGER

@<TRIPOS>ATOM
      1 ****        2.3360   -1.1557   -1.5582 C.3     1  WATER21111    0.0086
      2 ****        3.8736   -1.1935   -1.5242 C.3     1  WATER21111   -0.0110
      3 ****        4.5202    0.1894   -1.3852 C.3     1  WATER21111   -0.0093
      4 ****       -0.0757    3.0302    0.7473 H       1  WATER21111    0.0088
      5 ****        3.8681    1.0621   -0.3024 C.3     1  WATER21111    0.0381
      6 C5          2.3495    1.0486   -0.3055 C.2     1  WATER21111   -0.1085
      7 C6          1.6819    2.2144   -0.1459 C.2     1  WATER21111   -0.0814
      8 C7          0.1939    2.3898   -0.1250 C.3     1  WATER21111    0.0338
      9 ****       -0.5948    1.0600   -0.0424 C.3     1  WATER21111   -0.0150
     10 ****        0.1139   -0.0576   -0.8914 C.3     1  WATER21111   -0.0124
     11 ****        1.6236   -0.3056   -0.4448 C.3     1  WATER21111   -0.0159
     12 ****       -0.7441   -1.3506   -1.0376 C.3     1  WATER21111   -0.0030
     13 ****       -2.2609   -1.1654   -1.2803 C.3     1  WATER21111    0.0222
     14 ****       -2.9041   -0.1195   -0.3332 C.3     1  WATER21111   -0.1167
     15 ****       -2.0690    1.2063   -0.5017 C.3     1  WATER21111   -0.0267
     16 ****       -2.9859    2.3325    0.0416 C.3     1  WATER21111   -0.0018
     17 ****       -4.4186    1.8897   -0.3354 C.3     1  WATER21111   -0.0517
     18 C18        -4.3248    0.3979   -0.7054 C.2     1  WATER21111    0.2325
     19 ****       -3.0235   -0.6909    1.1090 C.3     1  WATER21111    0.0549
     20 ****        1.7183   -1.0405    0.9266 C.3     1  WATER21111    0.0499
     21 ****       -0.0907    2.9698   -1.0348 H       1  WATER21111    0.0107
     22 ****        2.0351   -0.7733   -2.5612 H       1  WATER21111    0.0051
     23 ****        1.9791   -2.2096   -1.5139 H       1  WATER21111    0.0043
     24 ****        4.2249   -1.8587   -0.7030 H       1  WATER21111    0.0063
     25 ****        4.2347   -1.6707   -2.4646 H       1  WATER21111    0.0062
     26 ****        4.2479    2.1025   -0.4317 H       1  WATER21111    0.0047
     27 ****        4.4782    0.7210   -2.3637 H       1  WATER21111    0.0073
     28 ****        2.2233    3.1596   -0.0324 H       1  WATER21111    0.0519
     29 ****        1.3167   -2.0725    0.8811 H       1  WATER21111   -0.0052
     30 O30        -5.2248   -0.2579   -1.2021 O.2     1  WATER21111   -0.2736
     31 ****       -0.5929    0.7637    1.0334 H       1  WATER21111    0.0188
     32 ****        0.1817    0.3565   -1.9322 H       1  WATER21111    0.0096
     33 ****       -0.3588   -1.9362   -1.9044 H       1  WATER21111    0.0065
     34 ****       -0.6202   -2.0112   -0.1520 H       1  WATER21111    0.0068
     35 ****       -2.4303   -0.8742   -2.3420 H       1  WATER21111    0.0100
     36 ****       -2.7565   -2.1553   -1.1652 H       1  WATER21111    0.0162
     37 ****       -2.0146    1.4159   -1.6056 H       1  WATER21111    0.0113
     38 ****       -2.7430    3.3119   -0.4204 H       1  WATER21111    0.0153
     39 ****       -2.8859    2.4749    1.1376 H       1  WATER21111    0.0159
     40 ****       -5.1272    2.0369    0.5064 H       1  WATER21111    0.0352
     41 ****       -4.8101    2.4815   -1.1896 H       1  WATER21111    0.0358
     42 ****       -3.6962   -1.5735    1.1233 H       1  WATER21111    0.0051
     43 ****       -2.0523   -1.0200    1.5259 H       1  WATER21111    0.0015
     44 ****       -3.4400    0.0469    1.8245 H       1  WATER21111   -0.0058
     45 ****        1.1679   -0.5057    1.7259 H       1  WATER21111   -0.0048
     46 ****        2.7662   -1.1337    1.2774 H       1  WATER21111   -0.0051
     47 ****        4.2307    0.7447    0.7041 H       1  WATER21111    0.0082
     48 ****        5.6027    0.0685   -1.1528 H       1  WATER21111    0.0063
@<TRIPOS>BOND
     1     1    23    1
     2     1    22    1
     3     1     2    1
     4     2    25    1
     5     2     3    1
     6     3    48    1
     7     3     5    1
     8     5    26    1
     9     5    47    1
    10     5     6    1
    11     6     7    2
    12     7    28    1
    13     7     8    1
    14     8    21    1
    15     8     4    1
    16     8     9    1
    17     9    31    1
    18     9    10    1
    19    10    32    1
    20    10    12    1
    21    12    33    1
    22    12    13    1
    23    13    35    1
    24    13    14    1
    25    14    19    1
    26    19    43    1
    27    19    42    1
    28    19    44    1
    29    14    18    1
    30    17    18    1
    31    16    17    1
    32    16    39    1
    33    16    38    1
    34    15    16    1
    35     9    15    1
    36    14    15    1
    37    15    37    1
    38    17    40    1
    39    17    41    1
    40    18    30    2
    41    13    36    1
    42    12    34    1
    43    10    11    1
    44    11    20    1
    45    20    46    1
    46    20    45    1
    47    20    29    1
    48     6    11    1
    49     1    11    1
    50     3    27    1
    51     2    24    1
