@<TRIPOS>MOLECULE
13
 48 51 0 0 0
SMALL
GASTEIGER

@<TRIPOS>ATOM
      1 ****        2.3367   -1.1358   -1.5767 C.3     1  WATER21111    0.0079
      2 ****        3.8715   -1.2073   -1.5130 C.3     1  WATER21111   -0.0109
      3 ****        4.5301    0.1706   -1.3709 C.3     1  WATER21111   -0.0098
      4 ****       -0.0767    3.0325    0.7491 H       1  WATER21111    0.0087
      5 ****        3.8703    1.0617   -0.3061 C.3     1  WATER21111    0.0381
      6 C5          2.3510    1.0523   -0.3089 C.2     1  WATER21111   -0.1078
      7 C6          1.6832    2.2171   -0.1428 C.2     1  WATER21111   -0.0815
      8 C7          0.1945    2.3929   -0.1233 C.3     1  WATER21111    0.0333
      9 ****       -0.5944    1.0631   -0.0422 C.3     1  WATER21111   -0.0142
     10 ****        0.1126   -0.0520   -0.8962 C.3     1  WATER21111   -0.0128
     11 ****        1.6237   -0.2999   -0.4545 C.3     1  WATER21111   -0.0162
     12 ****       -0.7445   -1.3458   -1.0426 C.3     1  WATER21111   -0.0034
     13 ****       -2.2625   -1.1631   -1.2792 C.3     1  WATER21111    0.0215
     14 ****       -2.9023   -0.1190   -0.3268 C.3     1  WATER21111   -0.1121
     15 ****       -2.0702    1.2068   -0.4996 C.3     1  WATER21111   -0.0293
     16 ****       -2.9902    2.3288    0.0455 C.3     1  WATER21111    0.0043
     17 ****       -4.4217    1.8881   -0.3479 C.3     1  WATER21111   -0.0475
     18 C18        -4.3291    0.3842   -0.6918 C.2     1  WATER21111    0.2369
     19 ****       -3.0113   -0.6923    1.1165 C.3     1  WATER21111    0.0521
     20 ****        1.7222   -1.0460    0.9106 C.3     1  WATER21111    0.0497
     21 ****       -0.0896    2.9733   -1.0328 H       1  WATER21111    0.0129
     22 ****        2.0606   -0.7230   -2.5748 H       1  WATER21111    0.0060
     23 ****        1.9577   -2.1830   -1.5657 H       1  WATER21111    0.0038
     24 ****        4.1978   -1.8729   -0.6824 H       1  WATER21111    0.0072
     25 ****        4.2420   -1.6943   -2.4445 H       1  WATER21111    0.0071
     26 ****        4.2511    2.0993   -0.4533 H       1  WATER21111    0.0052
     27 ****        4.5101    0.6954   -2.3538 H       1  WATER21111    0.0076
     28 ****        2.2243    3.1615   -0.0228 H       1  WATER21111    0.0530
     29 ****        1.3357   -2.0831    0.8525 H       1  WATER21111   -0.0052
     30 O30        -5.2412   -0.2901   -1.1334 O.2     1  WATER21111   -0.2452
     31 ****       -0.5903    0.7648    1.0327 H       1  WATER21111    0.0186
     32 ****        0.1766    0.3647   -1.9361 H       1  WATER21111    0.0113
     33 ****       -0.3623   -1.9282   -1.9126 H       1  WATER21111    0.0086
     34 ****       -0.6160   -2.0086   -0.1592 H       1  WATER21111    0.0073
     35 ****       -2.4378   -0.8697   -2.3391 H       1  WATER21111    0.0133
     36 ****       -2.7559   -2.1541   -1.1633 H       1  WATER21111    0.0177
     37 ****       -2.0164    1.4169   -1.6032 H       1  WATER21111    0.0200
     38 ****       -2.7281    3.3172   -0.3833 H       1  WATER21111    0.0343
     39 ****       -2.9169    2.4460    1.1477 H       1  WATER21111    0.0225
     40 ****       -5.1395    2.0534    0.4809 H       1  WATER21111    0.0652
     41 BR41       -5.1110    2.8945   -1.7873 Br      1  WATER21111   -0.0900
     42 ****       -3.6769   -1.5803    1.1340 H       1  WATER21111    0.0079
     43 ****       -2.0355   -1.0138    1.5282 H       1  WATER21111    0.0048
     44 ****       -3.4300    0.0426    1.8336 H       1  WATER21111   -0.0065
     45 ****        1.1610   -0.5263    1.7122 H       1  WATER21111   -0.0052
     46 ****        2.7691   -1.1280    1.2669 H       1  WATER21111   -0.0042
     47 ****        4.2288    0.7614    0.7071 H       1  WATER21111    0.0082
     48 ****        5.6070    0.0409   -1.1186 H       1  WATER21111    0.0067
@<TRIPOS>BOND
     1     1     2    1
     2     2    25    1
     3     2    24    1
     4     2     3    1
     5     3    48    1
     6     3     5    1
     7     5    26    1
     8     5    47    1
     9     5     6    1
    10     6     7    2
    11     7    28    1
    12     7     8    1
    13     8    21    1
    14     8     4    1
    15     8     9    1
    16     9    15    1
    17    15    16    1
    18    16    39    1
    19    16    38    1
    20    16    17    1
    21    17    18    1
    22    18    30    2
    23    14    18    1
    24    14    15    1
    25    14    19    1
    26    19    43    1
    27    19    44    1
    28    19    42    1
    29    13    14    1
    30    13    35    1
    31    13    36    1
    32    12    13    1
    33    10    12    1
    34     9    10    1
    35    10    32    1
    36    10    11    1
    37    11    20    1
    38    20    45    1
    39    20    46    1
    40    20    29    1
    41     6    11    1
    42     1    11    1
    43    12    34    1
    44    12    33    1
    45    17    40    1
    46    17    41    1
    47    15    37    1
    48     9    31    1
    49     3    27    1
    50     1    23    1
    51     1    22    1
