@<TRIPOS>MOLECULE
16
 47 50 0 0 0
SMALL
GASTEIGER

@<TRIPOS>ATOM
      1 ****        2.3241   -1.1862   -1.5242 C.3     1  WATER21111    0.0075
      2 ****        3.8656   -1.2276   -1.5202 C.3     1  WATER21111    0.0167
      3 C3          4.5028    0.0856   -1.1808 C.2     1  WATER21111   -0.0720
      4 ****       -0.2368    3.4106    0.5220 O.2     1  WATER21111   -0.2916
      5 C5          3.8089    1.1294   -0.6840 C.1     1  WATER21111   -0.0649
      6 C5          2.3552    1.0977   -0.4284 C.1     1  WATER21111   -0.0153
      7 C6          1.6873    2.2516   -0.1783 C.1     1  WATER21111   -0.1287
      8 C7          0.2328    2.3428    0.1399 C.1     1  WATER21111    0.2605
      9 ****       -0.6036    1.0448    0.0535 C.3     1  WATER21111   -0.0408
     10 ****        0.1209   -0.0314   -0.8401 C.3     1  WATER21111   -0.0105
     11 ****        1.6421   -0.2699   -0.4425 C.3     1  WATER21111   -0.0330
     12 ****       -0.7137   -1.3365   -0.9930 C.3     1  WATER21111   -0.0001
     13 ****       -2.2164   -1.1530   -1.2985 C.3     1  WATER21111    0.0114
     14 ****       -2.9093   -0.1141   -0.3778 C.3     1  WATER21111   -0.1144
     15 ****       -2.0623    1.2190   -0.4614 C.3     1  WATER21111   -0.0143
     16 ****       -3.0182    2.3112    0.0846 C.3     1  WATER21111   -0.0004
     17 ****       -4.4431    1.8606   -0.3160 C.3     1  WATER21111   -0.0109
     18 C18        -4.3146    0.4186   -0.9095 C.3     1  WATER21111    0.1353
     19 ****       -3.0644   -0.7058    1.0529 C.3     1  WATER21111    0.0611
     20 ****        1.8071   -0.9112    0.9678 C.3     1  WATER21111    0.0487
     21 ****       -4.2515    0.5100   -2.0312 H       1  WATER21111   -0.0063
     22 ****        2.0037   -0.8529   -2.5382 H       1  WATER21111    0.0080
     23 ****        1.9649   -2.2337   -1.4151 H       1  WATER21111    0.0086
     24 ****        4.2308   -2.0023   -0.8057 H       1  WATER21111    0.0146
     25 ****        4.2142   -1.5590   -2.5262 H       1  WATER21111    0.0142
     26 ****        2.2164    3.2099   -0.1854 H       1  WATER21111    0.0769
     27 O27        -5.4285   -0.3501   -0.5762 O.3     1  WATER21111   -0.3111
     28 ****       -0.6421    0.6852    1.1104 H       1  WATER21111    0.0369
     29 ****        0.1612    0.4104   -1.8711 H       1  WATER21111    0.0120
     30 ****       -0.2979   -1.9368   -1.8347 H       1  WATER21111    0.0046
     31 ****       -0.6124   -1.9769   -0.0895 H       1  WATER21111    0.0090
     32 ****       -2.3333   -0.8624   -2.3679 H       1  WATER21111    0.0035
     33 ****       -2.7128   -2.1464   -1.2132 H       1  WATER21111    0.0046
     34 ****       -1.9477    1.4773   -1.5496 H       1  WATER21111    0.0071
     35 ****       -2.7966    3.3027   -0.3625 H       1  WATER21111    0.0229
     36 ****       -2.9387    2.4358    1.1841 H       1  WATER21111    0.0216
     37 ****       -5.1267    1.9029    0.5572 H       1  WATER21111    0.0298
     38 ****       -4.8767    2.5426   -1.0784 H       1  WATER21111    0.0120
     39 ****       -3.6445   -1.6518    1.0341 H       1  WATER21111   -0.0024
     40 ****       -2.0928   -0.9498    1.5269 H       1  WATER21111   -0.0123
     41 ****       -3.5848   -0.0175    1.7478 H       1  WATER21111    0.0039
     42 ****        1.3072   -0.3197    1.7601 H       1  WATER21111   -0.0021
     43 H42         1.3921   -1.9377    1.0102 H       1  WATER21111   -0.0010
     44 ****        2.8739   -0.9864    1.2619 H       1  WATER21111   -0.0014
     45 ****        4.3278    2.0632   -0.4497 H       1  WATER21111    0.0614
     46 ****        5.5790    0.1536   -1.3531 H       1  WATER21111    0.0607
     47 ****       -5.4967   -1.1174   -1.1269 H       1  WATER21111    0.1799
@<TRIPOS>BOND
     1     1    23    1
     2     1    22    1
     3     1    11    1
     4     6    11    1
     5     6     7    2
     6     7    26    1
     7     7     8    2
     8     8     4    2
     9     8     9    1
    10     9    15    1
    11    15    16    1
    12    16    36    1
    13    16    35    1
    14    16    17    1
    15    17    38    1
    16    17    37    1
    17    17    18    1
    18    18    21    1
    19    14    18    1
    20    14    19    1
    21    19    41    1
    22    19    40    1
    23    19    39    1
    24    14    15    1
    25    13    14    1
    26    13    33    1
    27    13    32    1
    28    12    13    1
    29    12    31    1
    30    12    30    1
    31    10    12    1
    32    10    11    1
    33     9    10    1
    34    10    29    1
    35    18    27    1
    36    27    47    1
    37    15    34    1
    38     9    28    1
    39     5     6    2
    40     3     5    2
    41     3    46    1
    42     2     3    1
    43     2    24    1
    44     1     2    1
    45     2    25    1
    46     5    45    1
    47    11    20    1
    48    20    44    1
    49    20    43    1
    50    20    42    1
