@<TRIPOS>MOLECULE
20
 44 47 0 0 0
SMALL
GASTEIGER

@<TRIPOS>ATOM
      1 ****        2.3520   -1.2475   -1.4701 C.3     1  WATER21111   -0.0019
      2 ****        3.8755   -1.3034   -1.2773 C.3     1  WATER21111   -0.0461
      3 C3          4.5091    0.0880   -1.3315 C.1     1  WATER21111    0.2523
      4 ****        1.7649    2.0841    1.3890 H       1  WATER21111    0.0152
      5 C5          3.6900    1.1905   -0.7461 C.1     1  WATER21111   -0.1286
      6 C5          2.3869    1.0675   -0.3893 C.2     1  WATER21111   -0.0605
      7 C6          1.6835    2.2281    0.2846 C.3     1  WATER21111    0.0259
      8 C7          0.2079    2.4038   -0.1061 C.3     1  WATER21111   -0.0009
      9 ****       -0.5801    1.0738   -0.0824 C.3     1  WATER21111   -0.0156
     10 ****        0.1206    0.0040   -0.9960 C.3     1  WATER21111   -0.0207
     11 ****        1.6072   -0.2392   -0.5489 C.3     1  WATER21111    0.0068
     12 ****       -0.7076   -1.3090   -1.1208 C.3     1  WATER21111   -0.0031
     13 ****       -2.2344   -1.1554   -1.3165 C.3     1  WATER21111    0.0223
     14 ****       -2.8739   -0.1262   -0.3484 C.3     1  WATER21111   -0.1175
     15 ****       -2.0625    1.2163   -0.5131 C.3     1  WATER21111   -0.0260
     16 ****       -2.9868    2.3198    0.0621 C.3     1  WATER21111   -0.0015
     17 ****       -4.4202    1.8572   -0.2886 C.3     1  WATER21111   -0.0514
     18 ****       -4.3086    0.3745   -0.6884 C.2     1  WATER21111    0.2324
     19 ****       -2.9589   -0.7176    1.0886 C.3     1  WATER21111    0.0543
     20 H20         1.5811   -0.7011    0.4728 H       1  WATER21111    0.0221
     21 ****       -5.2051   -0.2874   -1.1828 O.2     1  WATER21111   -0.2714
     22 ****        2.1429   -1.0171   -2.5399 H       1  WATER21111    0.0135
     23 ****        1.9582   -2.2729   -1.2874 H       1  WATER21111    0.0121
     24 ****        4.1294   -1.7634   -0.2947 H       1  WATER21111    0.0290
     25 ****        4.3118   -1.9704   -2.0538 H       1  WATER21111    0.0352
     26 ****        4.2226    2.1357   -0.6050 H       1  WATER21111    0.0763
     27 ****        2.2101    3.1859    0.0673 H       1  WATER21111    0.0149
     28 ****       -0.5540    0.7155    0.9756 H       1  WATER21111    0.0176
     29 ****        0.1678    0.4343   -2.0291 H       1  WATER21111    0.0161
     30 ****       -0.3377   -1.8828   -2.0017 H       1  WATER21111    0.0075
     31 ****       -0.5239   -1.9594   -0.2359 H       1  WATER21111    0.0070
     32 ****       -2.4391   -0.8640   -2.3720 H       1  WATER21111    0.0115
     33 ****       -2.7050   -2.1563   -1.1917 H       1  WATER21111    0.0179
     34 ****       -2.0289    1.4449   -1.6140 H       1  WATER21111    0.0123
     35 ****       -2.7701    3.3076   -0.3955 H       1  WATER21111    0.0161
     36 ****       -2.8661    2.4520    1.1573 H       1  WATER21111    0.0161
     37 ****       -5.1097    1.9753    0.5735 H       1  WATER21111    0.0361
     38 ****       -4.8440    2.4579   -1.1207 H       1  WATER21111    0.0369
     39 ****       -3.6227   -1.6069    1.1046 H       1  WATER21111    0.0063
     40 ****       -1.9761   -1.0437    1.4807 H       1  WATER21111    0.0002
     41 ****       -3.3673    0.0065    1.8223 H       1  WATER21111   -0.0048
     42 O41         5.6232    0.2830   -1.8062 O.2     1  WATER21111   -0.2850
     43 ****       -0.2498    3.1283    0.6050 H       1  WATER21111    0.0091
     44 ****        0.1477    2.8799   -1.1109 H       1  WATER21111    0.0121
@<TRIPOS>BOND
     1     1     2    1
     2     2    24    1
     3     2     3    1
     4     3     5    2
     5     5    26    1
     6     5     6    2
     7     6     7    1
     8     7    27    1
     9     7     4    1
    10     7     8    1
    11     8    44    1
    12     8    43    1
    13     8     9    1
    14     9    10    1
    15    10    29    1
    16    10    12    1
    17    12    13    1
    18    13    14    1
    19    14    19    1
    20    19    41    1
    21    19    40    1
    22    19    39    1
    23    14    18    1
    24    17    18    1
    25    16    17    1
    26    16    36    1
    27    16    35    1
    28    15    16    1
    29    14    15    1
    30    15    34    1
    31     9    15    1
    32    17    38    1
    33    17    37    1
    34    18    21    2
    35    13    33    1
    36    13    32    1
    37    12    30    1
    38    12    31    1
    39    10    11    1
    40     6    11    1
    41    11    20    1
    42     1    11    1
    43     9    28    1
    44     3    42    2
    45     2    25    1
    46     1    22    1
    47     1    23    1
