@<TRIPOS>MOLECULE
28
 50 53 0 0 0
SMALL
GASTEIGER

@<TRIPOS>ATOM
      1 ****        2.3403   -1.2186   -1.4931 C.3     1  WATER21111    0.0060
      2 ****        3.8784   -1.2312   -1.4669 C.3     1  WATER21111   -0.0126
      3 C3          4.4936    0.1749   -1.4798 C.3     1  WATER21111    0.0239
      4 ****        1.7705    2.0665    1.4540 H       1  WATER21111    0.0083
      5 C5          3.6421    1.2114   -0.8090 C.2     1  WATER21111   -0.0784
      6 C5          2.3847    1.0388   -0.3347 C.2     1  WATER21111   -0.1110
      7 C6          1.6881    2.1971    0.3487 C.3     1  WATER21111    0.0369
      8 C7          0.2152    2.3707   -0.0481 C.3     1  WATER21111    0.0006
      9 ****       -0.5867    1.0490   -0.0018 C.3     1  WATER21111   -0.0148
     10 ****        0.1347   -0.0720   -0.8363 C.3     1  WATER21111   -0.0086
     11 ****        1.6471   -0.3145   -0.4068 C.3     1  WATER21111   -0.0165
     12 ****       -0.7211   -1.3699   -0.9434 C.3     1  WATER21111   -0.0004
     13 ****       -2.2256   -1.1832   -1.2497 C.3     1  WATER21111    0.0135
     14 ****       -2.9098   -0.1043   -0.3670 C.3     1  WATER21111   -0.1123
     15 ****       -2.0459    1.2084   -0.5101 C.3     1  WATER21111   -0.0256
     16 ****       -2.9667    2.3411    0.0065 C.3     1  WATER21111   -0.0037
     17 ****       -4.4018    1.9081   -0.3766 C.3     1  WATER21111   -0.0081
     18 C18        -4.3082    0.4370   -0.9088 C.3     1  WATER21111    0.1353
     19 ****       -3.0649   -0.6397    1.0851 C.3     1  WATER21111    0.0618
     20 ****        1.7789   -1.0022    0.9864 C.3     1  WATER21111    0.0499
     21 ****       -4.2544    0.4794   -2.0340 H       1  WATER21111   -0.0062
     22 ****        2.0214   -0.8930   -2.5102 H       1  WATER21111    0.0053
     23 ****        1.9961   -2.2722   -1.3901 H       1  WATER21111    0.0043
     24 ****        4.2461   -1.7952   -0.5805 H       1  WATER21111    0.0075
     25 ****        4.2440   -1.8017   -2.3516 H       1  WATER21111    0.0057
     26 ****        1.4883   -2.0717    0.9550 H       1  WATER21111   -0.0061
     27 ****       -0.6245    0.7460    1.0713 H       1  WATER21111    0.0179
     28 ****        0.1956    0.3244   -1.8841 H       1  WATER21111    0.0087
     29 ****       -0.3142   -2.0051   -1.7637 H       1  WATER21111    0.0029
     30 ****       -0.6280   -1.9803   -0.0185 H       1  WATER21111    0.0071
     31 ****       -2.3448   -0.9325   -2.3289 H       1  WATER21111    0.0019
     32 ****       -2.7302   -2.1683   -1.1248 H       1  WATER21111    0.0021
     33 ****       -1.9461    1.4196   -1.6104 H       1  WATER21111    0.0068
     34 ****       -2.7125    3.3141   -0.4645 H       1  WATER21111    0.0094
     35 ****       -2.8778    2.4971    1.1019 H       1  WATER21111    0.0138
     36 ****       -5.0850    2.0040    0.4927 H       1  WATER21111    0.0291
     37 ****       -4.8174    2.5670   -1.1686 H       1  WATER21111    0.0109
     38 ****       -3.6549   -1.5796    1.1041 H       1  WATER21111   -0.0036
     39 ****       -2.0938   -0.8746    1.5644 H       1  WATER21111   -0.0093
     40 ****       -3.5762    0.0797    1.7553 H       1  WATER21111    0.0003
     41 ****        1.1526   -0.5196    1.7621 H       1  WATER21111   -0.0044
     42 ****        2.2129    3.1564    0.1295 H       1  WATER21111    0.0049
     43 ****        2.8229   -0.9668    1.3603 H       1  WATER21111   -0.0049
     44 ****        4.1384    2.1843   -0.7288 H       1  WATER21111    0.0504
     45 ****        5.4934    0.1476   -0.9874 H       1  WATER21111    0.0102
     46 ****       -0.2415    3.1118    0.6467 H       1  WATER21111    0.0051
     47 ****        0.1633    2.8278   -1.0625 H       1  WATER21111    0.0079
     48 ****        4.6810    0.4960   -2.5319 H       1  WATER21111    0.0100
     49 O50        -5.4369   -0.2900   -0.5339 O.3     1  WATER21111   -0.3122
     50 ****       -5.5214   -1.0839   -1.0431 H       1  WATER21111    0.1805
@<TRIPOS>BOND
     1     1     2    1
     2     2    24    1
     3     2    25    1
     4     2     3    1
     5     3    45    1
     6     3     5    1
     7     5    44    1
     8     5     6    2
     9     6     7    1
    10     7     4    1
    11     7     8    1
    12     8    47    1
    13     8     9    1
    14     9    10    1
    15    10    12    1
    16    12    29    1
    17    12    30    1
    18    12    13    1
    19    13    32    1
    20    13    14    1
    21    14    18    1
    22    18    17    1
    23    17    36    1
    24    16    17    1
    25    16    35    1
    26    16    34    1
    27    15    16    1
    28     9    15    1
    29    15    33    1
    30    15    14    1
    31    17    37    1
    32    18    21    1
    33    18    49    1
    34    49    50    1
    35    14    19    1
    36    19    38    1
    37    19    39    1
    38    19    40    1
    39    13    31    1
    40    10    28    1
    41    11    10    1
    42     1    11    1
    43    11     6    1
    44    11    20    1
    45    20    41    1
    46    20    43    1
    47    20    26    1
    48     9    27    1
    49     8    46    1
    50     7    42    1
    51     3    48    1
    52     1    22    1
    53     1    23    1
