@<TRIPOS>MOLECULE
29
 51 54 0 0 0
SMALL
GASTEIGER

@<TRIPOS>ATOM
      1 ****        2.3381   -1.2005   -1.5026 C.3     1  WATER21111    0.0097
      2 ****        3.8761   -1.2285   -1.4829 C.3     1  WATER21111   -0.0127
      3 C3          4.4941    0.1771   -1.4894 C.3     1  WATER21111    0.0204
      4 ****        1.7888    2.0902    1.4462 H       1  WATER21111    0.0056
      5 C5          3.6379    1.2144   -0.8238 C.2     1  WATER21111   -0.0707
      6 C5          2.3852    1.0394   -0.3364 C.2     1  WATER21111   -0.1244
      7 C6          1.6902    2.2028    0.3400 C.3     1  WATER21111    0.0374
      8 C7          0.2114    2.3648   -0.0368 C.3     1  WATER21111   -0.0005
      9 ****       -0.5879    1.0414    0.0182 C.3     1  WATER21111   -0.0152
     10 ****        0.1364   -0.0867   -0.8052 C.3     1  WATER21111   -0.0065
     11 ****        1.6554   -0.3242   -0.3889 C.3     1  WATER21111    0.0036
     12 ****       -0.7274   -1.3788   -0.9163 C.3     1  WATER21111   -0.0004
     13 ****       -2.2233   -1.1794   -1.2565 C.3     1  WATER21111    0.0119
     14 ****       -2.9155   -0.1037   -0.3766 C.3     1  WATER21111   -0.1121
     15 ****       -2.0435    1.2051   -0.5024 C.3     1  WATER21111   -0.0258
     16 ****       -2.9661    2.3384    0.0106 C.3     1  WATER21111   -0.0039
     17 ****       -4.3980    1.9148   -0.3947 C.3     1  WATER21111   -0.0081
     18 C18        -4.3046    0.4462   -0.9333 C.3     1  WATER21111    0.1351
     19 ****       -3.0926   -0.6447    1.0710 C.3     1  WATER21111    0.0623
     20 ****        1.8414   -0.9501    1.0534 C.3     1  WATER21111    0.1792
     21 ****       -4.2371    0.4939   -2.0574 H       1  WATER21111   -0.0061
     22 ****        2.0240   -0.8239   -2.5050 H       1  WATER21111    0.0010
     23 ****        1.9820   -2.2525   -1.4602 H       1  WATER21111    0.0224
     24 ****        4.2483   -1.8004   -0.6041 H       1  WATER21111    0.0103
     25 ****        4.2330   -1.7927   -2.3749 H       1  WATER21111    0.0065
     26 O26         1.6655   -2.3345    1.0829 O.3     1  WATER21111   -0.3263
     27 ****       -0.6338    0.7468    1.0931 H       1  WATER21111    0.0165
     28 ****        0.1977    0.3087   -1.8543 H       1  WATER21111    0.0075
     29 ****       -0.3092   -2.0264   -1.7206 H       1  WATER21111    0.0065
     30 ****       -0.6697   -1.9786    0.0163 H       1  WATER21111    0.0184
     31 ****       -2.3186   -0.9185   -2.3356 H       1  WATER21111    0.0009
     32 ****       -2.7375   -2.1617   -1.1508 H       1  WATER21111    0.0025
     33 ****       -1.9323    1.4218   -1.6006 H       1  WATER21111    0.0069
     34 ****       -2.7019    3.3139   -0.4496 H       1  WATER21111    0.0089
     35 ****       -2.8904    2.4861    1.1081 H       1  WATER21111    0.0131
     36 ****       -5.0926    2.0099    0.4655 H       1  WATER21111    0.0288
     37 ****       -4.7984    2.5804   -1.1891 H       1  WATER21111    0.0107
     38 ****       -3.6738   -1.5902    1.0764 H       1  WATER21111   -0.0034
     39 ****       -2.1289   -0.8702    1.5688 H       1  WATER21111   -0.0094
     40 ****       -3.6240    0.0674    1.7334 H       1  WATER21111   -0.0010
     41 ****        1.1376   -0.4609    1.7785 H       1  WATER21111   -0.0193
     42 ****        2.2065    3.1618    0.1002 H       1  WATER21111    0.0053
     43 ****        2.8692   -0.6951    1.4344 H       1  WATER21111   -0.0205
     44 ****        4.1277    2.1920   -0.7585 H       1  WATER21111    0.0500
     45 ****        5.4900    0.1498   -0.9890 H       1  WATER21111    0.0100
     46 ****       -0.2403    3.1042    0.6634 H       1  WATER21111    0.0049
     47 ****        0.1456    2.8213   -1.0507 H       1  WATER21111    0.0085
     48 ****        1.8037   -2.6705    1.9576 H       1  WATER21111    0.1826
     49 ****        4.6891    0.4994   -2.5397 H       1  WATER21111    0.0108
     50 O50        -5.4412   -0.2776   -0.5763 O.3     1  WATER21111   -0.3126
     51 ****       -5.5190   -1.0722   -1.0858 H       1  WATER21111    0.1807
@<TRIPOS>BOND
     1     1    11    1
     2    11     6    1
     3     6     7    1
     4     7     8    1
     5     8     9    1
     6     9    27    1
     7     9    15    1
     8    15    16    1
     9    16    35    1
    10    16    34    1
    11    16    17    1
    12    17    36    1
    13    17    37    1
    14    18    17    1
    15    14    18    1
    16    13    14    1
    17    12    13    1
    18    12    29    1
    19    12    30    1
    20    10    12    1
    21    11    10    1
    22     9    10    1
    23    10    28    1
    24    13    31    1
    25    13    32    1
    26    14    19    1
    27    19    40    1
    28    19    39    1
    29    19    38    1
    30    15    14    1
    31    18    50    1
    32    50    51    1
    33    18    21    1
    34    15    33    1
    35     8    46    1
    36     8    47    1
    37     7    42    1
    38     7     4    1
    39     5     6    2
    40     5    44    1
    41     3     5    1
    42     2     3    1
    43     1     2    1
    44     2    25    1
    45     2    24    1
    46     3    45    1
    47     3    49    1
    48    11    20    1
    49    20    41    1
    50    20    26    1
    51    26    48    1
    52    20    43    1
    53     1    22    1
    54     1    23    1
