@<TRIPOS>MOLECULE
34
 50 53 0 0 0
SMALL
GASTEIGER

@<TRIPOS>ATOM
      1 ****        2.3291   -1.1649   -1.5682 C.3     1  WATER21111    0.0040
      2 ****        3.8628   -1.2466   -1.5204 C.3     1  WATER21111   -0.0473
      3 C3          4.5248    0.1161   -1.3236 C.1     1  WATER21111    0.2545
      4 C4          1.9635    2.4157    1.8024 C.3     1  WATER21111    0.0422
      5 C5          3.6760    1.1857   -0.7241 C.1     1  WATER21111   -0.1364
      6 C5          2.3865    1.0399   -0.3184 C.2     1  WATER21111   -0.0374
      7 C6          1.6988    2.2640    0.2871 C.3     1  WATER21111   -0.0186
      8 C7          0.2052    2.3777   -0.0966 C.3     1  WATER21111    0.0111
      9 ****       -0.5864    1.0530   -0.0236 C.3     1  WATER21111   -0.0142
     10 ****        0.1277   -0.0611   -0.8694 C.3     1  WATER21111   -0.0097
     11 ****        1.6389   -0.3066   -0.4415 C.3     1  WATER21111   -0.0265
     12 ****       -0.7270   -1.3598   -0.9952 C.3     1  WATER21111   -0.0036
     13 ****       -2.2408   -1.1799   -1.2599 C.3     1  WATER21111    0.0220
     14 ****       -2.8966   -0.1166   -0.3418 C.3     1  WATER21111   -0.1173
     15 ****       -2.0526    1.2034   -0.5137 C.3     1  WATER21111   -0.0274
     16 ****       -2.9770    2.3408   -0.0076 C.3     1  WATER21111   -0.0016
     17 ****       -4.4027    1.8981   -0.4104 C.3     1  WATER21111   -0.0515
     18 ****       -4.3082    0.3995   -0.7497 C.2     1  WATER21111    0.2324
     19 ****       -3.0460   -0.6658    1.1064 C.3     1  WATER21111    0.0544
     20 ****        1.7667   -1.0610    0.9176 C.3     1  WATER21111    0.0473
     21 ****       -5.2015   -0.2634   -1.2490 O.2     1  WATER21111   -0.2714
     22 ****        2.0462   -0.7591   -2.5672 H       1  WATER21111    0.0104
     23 ****        1.9441   -2.2089   -1.5427 H       1  WATER21111    0.0123
     24 ****        4.1980   -1.9226   -0.7009 H       1  WATER21111    0.0312
     25 ****        4.2197   -1.7143   -2.4663 H       1  WATER21111    0.0348
     26 ****        1.5408   -2.1420    0.8172 H       1  WATER21111   -0.0008
     27 ****       -0.6120    0.7503    1.0492 H       1  WATER21111    0.0196
     28 ****        0.1868    0.3469   -1.9131 H       1  WATER21111    0.0111
     29 ****       -0.3355   -1.9661   -1.8443 H       1  WATER21111    0.0073
     30 ****       -0.6090   -1.9968   -0.0914 H       1  WATER21111    0.0075
     31 ****       -2.3960   -0.9087   -2.3291 H       1  WATER21111    0.0112
     32 ****       -2.7374   -2.1680   -1.1328 H       1  WATER21111    0.0180
     33 ****       -1.9755    1.3974   -1.6192 H       1  WATER21111    0.0119
     34 ****       -2.7201    3.3122   -0.4791 H       1  WATER21111    0.0161
     35 ****       -2.9021    2.4988    1.0883 H       1  WATER21111    0.0162
     36 ****       -5.1309    2.0662    0.4104 H       1  WATER21111    0.0364
     37 ****       -4.7698    2.4749   -1.2855 H       1  WATER21111    0.0368
     38 ****       -3.7352   -1.5356    1.1236 H       1  WATER21111    0.0064
     39 ****       -2.0869   -1.0081    1.5403 H       1  WATER21111    0.0002
     40 ****       -3.4567    0.0899    1.8061 H       1  WATER21111   -0.0048
     41 ****        1.0840   -0.6631    1.6929 H       1  WATER21111   -0.0011
     42 ****        2.1731    3.1701   -0.1791 H       1  WATER21111    0.0182
     43 ****        2.7941   -0.9888    1.3299 H       1  WATER21111   -0.0025
     44 ****        4.1833    2.1512   -0.6228 H       1  WATER21111    0.0749
     45 ****        5.6961    0.3161   -1.6316 O.2     1  WATER21111   -0.2874
     46 ****       -0.2760    3.1358    0.5618 H       1  WATER21111    0.0083
     47 ****        0.1485    2.7988   -1.1275 H       1  WATER21111    0.0082
     48 ****        3.0402    2.2919    2.0365 H       1  WATER21111    0.0003
     49 ****        1.6709    3.4302    2.1439 H       1  WATER21111   -0.0025
     50 ****        1.4023    1.6860    2.4172 H       1  WATER21111   -0.0025
@<TRIPOS>BOND
     1     1    23    1
     2     1     2    1
     3     2    24    1
     4     2    25    1
     5     2     3    1
     6     3    45    2
     7     3     5    2
     8     5    44    1
     9     5     6    2
    10     6    11    1
    11    10    11    1
    12    10    28    1
    13    10    12    1
    14    12    13    1
    15    13    31    1
    16    13    14    1
    17    14    19    1
    18    19    40    1
    19    19    39    1
    20    19    38    1
    21    14    15    1
    22    15    33    1
    23     9    15    1
    24     9    27    1
    25     8     9    1
    26     8    47    1
    27     8    46    1
    28     7     8    1
    29     7    42    1
    30     7     4    1
    31     4    49    1
    32     4    48    1
    33     4    50    1
    34     6     7    1
    35     9    10    1
    36    15    16    1
    37    16    35    1
    38    16    17    1
    39    17    37    1
    40    17    18    1
    41    14    18    1
    42    18    21    2
    43    17    36    1
    44    16    34    1
    45    13    32    1
    46    12    30    1
    47    12    29    1
    48    11    20    1
    49    20    43    1
    50    20    26    1
    51    20    41    1
    52     1    11    1
    53     1    22    1
