@<TRIPOS>MOLECULE
48
 51 54 0 0 0
SMALL
GASTEIGER

@<TRIPOS>ATOM
      1 ****        2.3290   -1.1584   -1.5714 C.3     1  WATER21111    0.0037
      2 ****        3.8608   -1.2626   -1.5046 C.3     1  WATER21111   -0.0471
      3 C3          4.5388    0.0894   -1.2860 C.1     1  WATER21111    0.2546
      4 C4          1.9755    2.4334    1.7270 C.2     1  WATER21111   -0.1161
      5 C5          3.6899    1.1746   -0.7144 C.1     1  WATER21111   -0.1359
      6 C5          2.3913    1.0457   -0.3329 C.2     1  WATER21111   -0.0360
      7 C6          1.7012    2.2850    0.2422 C.3     1  WATER21111    0.0384
      8 C7          0.1947    2.3876   -0.0984 C.3     1  WATER21111    0.0107
      9 ****       -0.5882    1.0575   -0.0257 C.3     1  WATER21111   -0.0138
     10 ****        0.1273   -0.0500   -0.8789 C.3     1  WATER21111   -0.0097
     11 ****        1.6375   -0.2971   -0.4492 C.3     1  WATER21111   -0.0266
     12 ****       -0.7242   -1.3498   -1.0151 C.3     1  WATER21111   -0.0037
     13 ****       -2.2384   -1.1718   -1.2772 C.3     1  WATER21111    0.0219
     14 ****       -2.8958   -0.1215   -0.3455 C.3     1  WATER21111   -0.1173
     15 ****       -2.0580    1.2039   -0.5072 C.3     1  WATER21111   -0.0274
     16 ****       -2.9852    2.3315    0.0151 C.3     1  WATER21111   -0.0017
     17 ****       -4.4112    1.8863   -0.3843 C.3     1  WATER21111   -0.0515
     18 ****       -4.3110    0.3925   -0.7433 C.2     1  WATER21111    0.2324
     19 ****       -3.0388   -0.6862    1.0974 C.3     1  WATER21111    0.0545
     20 ****        1.7617   -1.0457    0.9136 C.3     1  WATER21111    0.0480
     21 ****       -5.2022   -0.2683   -1.2490 O.2     1  WATER21111   -0.2715
     22 ****        2.0626   -0.7432   -2.5712 H       1  WATER21111    0.0102
     23 ****        1.9308   -2.1976   -1.5575 H       1  WATER21111    0.0121
     24 ****        4.1762   -1.9524   -0.6889 H       1  WATER21111    0.0315
     25 ****        4.2230   -1.7242   -2.4515 H       1  WATER21111    0.0345
     26 ****        1.5416   -2.1281    0.8150 H       1  WATER21111   -0.0013
     27 ****       -0.6062    0.7512    1.0463 H       1  WATER21111    0.0198
     28 ****        0.1870    0.3646   -1.9200 H       1  WATER21111    0.0109
     29 ****       -0.3319   -1.9473   -1.8702 H       1  WATER21111    0.0072
     30 ****       -0.6040   -1.9949   -0.1173 H       1  WATER21111    0.0075
     31 ****       -2.3952   -0.8879   -2.3429 H       1  WATER21111    0.0111
     32 ****       -2.7316   -2.1630   -1.1624 H       1  WATER21111    0.0180
     33 ****       -1.9865    1.4097   -1.6110 H       1  WATER21111    0.0117
     34 ****       -2.7361    3.3087   -0.4484 H       1  WATER21111    0.0161
     35 ****       -2.9039    2.4784    1.1121 H       1  WATER21111    0.0164
     36 ****       -5.1346    2.0396    0.4436 H       1  WATER21111    0.0362
     37 ****       -4.7874    2.4725   -1.2492 H       1  WATER21111    0.0367
     38 ****       -3.7090   -1.5709    1.1040 H       1  WATER21111    0.0063
     39 ****       -2.0740   -1.0109    1.5324 H       1  WATER21111    0.0002
     40 ****       -3.4697    0.0535    1.8020 H       1  WATER21111   -0.0048
     41 ****        1.0736   -0.6484    1.6842 H       1  WATER21111   -0.0015
     42 ****        2.1535    3.1754   -0.2724 H       1  WATER21111    0.0172
     43 ****        2.7861   -0.9665    1.3319 H       1  WATER21111   -0.0019
     44 ****        4.2043    2.1363   -0.6151 H       1  WATER21111    0.0746
     45 ****        5.7225    0.2691   -1.5568 O.2     1  WATER21111   -0.2879
     46 ****       -0.2706    3.1321    0.5864 H       1  WATER21111    0.0103
     47 ****        0.1070    2.8238   -1.1208 H       1  WATER21111    0.0075
     48 C49         2.7893    3.3384    2.2907 C.2     1  WATER21111   -0.0432
     49 ****        1.4429    1.7320    2.3765 H       1  WATER21111    0.0521
     50 ****        3.3626    4.0836    1.7417 H       1  WATER21111    0.0444
     51 ****        2.9365    3.3906    3.3693 H       1  WATER21111    0.0423
@<TRIPOS>BOND
     1     1    22    1
     2     1    23    1
     3     1     2    1
     4     2    24    1
     5     2    25    1
     6     2     3    1
     7     3     5    2
     8     5    44    1
     9     5     6    2
    10     6     7    1
    11     7    42    1
    12     7     4    1
    13     4    49    1
    14     4    48    2
    15    48    50    1
    16    48    51    1
    17     7     8    1
    18     8    46    1
    19     8    47    1
    20     8     9    1
    21     9    27    1
    22     9    15    1
    23    15    33    1
    24    14    15    1
    25    14    19    1
    26    19    39    1
    27    19    38    1
    28    19    40    1
    29    13    14    1
    30    13    31    1
    31    13    32    1
    32    12    13    1
    33    12    29    1
    34    10    12    1
    35    10    28    1
    36     9    10    1
    37    10    11    1
    38     6    11    1
    39     1    11    1
    40    11    20    1
    41    20    41    1
    42    20    26    1
    43    20    43    1
    44    12    30    1
    45    14    18    1
    46    17    18    1
    47    17    37    1
    48    17    36    1
    49    16    17    1
    50    16    35    1
    51    16    34    1
    52    15    16    1
    53    18    21    2
    54     3    45    2
