@<TRIPOS>MOLECULE
50
 51 54 0 0 0
SMALL
GASTEIGER

@<TRIPOS>ATOM
      1 ****        2.3434   -1.2526   -1.4456 C.3     1  WATER21111    0.0048
      2 ****        3.8779   -1.1831   -1.5099 C.3     1  WATER21111   -0.0469
      3 C3          4.3748    0.2595   -1.6146 C.1     1  WATER21111    0.2535
      4 C4          2.2866    2.7470    1.4978 C.2     1  WATER21111   -0.0608
      5 C5          3.5664    1.2720   -0.8753 C.1     1  WATER21111   -0.1319
      6 C5          2.3686    1.0204   -0.2873 C.1     1  WATER21111   -0.0068
      7 C6          1.6715    2.0953    0.4797 C.1     1  WATER21111   -0.0995
      8 C7          0.2543    2.3433    0.0118 C.3     1  WATER21111    0.0506
      9 ****       -0.5752    1.0335    0.0214 C.3     1  WATER21111   -0.0150
     10 ****        0.1428   -0.0988   -0.8009 C.3     1  WATER21111   -0.0098
     11 ****        1.6516   -0.3459   -0.3627 C.3     1  WATER21111   -0.0283
     12 ****       -0.7225   -1.3904   -0.9070 C.3     1  WATER21111   -0.0036
     13 ****       -2.2218   -1.1904   -1.2344 C.3     1  WATER21111    0.0218
     14 ****       -2.8920   -0.0927   -0.3674 C.3     1  WATER21111   -0.1172
     15 ****       -2.0158    1.2090   -0.5289 C.3     1  WATER21111   -0.0276
     16 ****       -2.9369    2.3722   -0.0803 C.3     1  WATER21111   -0.0016
     17 ****       -4.3537    1.9487   -0.5327 C.3     1  WATER21111   -0.0515
     18 ****       -4.2749    0.4427   -0.8430 C.2     1  WATER21111    0.2323
     19 ****       -3.1122   -0.6088    1.0841 C.3     1  WATER21111    0.0542
     20 ****        1.7863   -1.0285    1.0319 C.3     1  WATER21111    0.0493
     21 ****       -5.1595   -0.2115   -1.3685 O.2     1  WATER21111   -0.2715
     22 ****        1.9595   -0.9900   -2.4587 H       1  WATER21111    0.0107
     23 ****        2.0636   -2.3178   -1.2833 H       1  WATER21111    0.0122
     24 ****        4.3419   -1.6511   -0.6126 H       1  WATER21111    0.0298
     25 ****        4.2235   -1.7846   -2.3807 H       1  WATER21111    0.0345
     26 ****        1.4643   -2.0889    1.0119 H       1  WATER21111   -0.0012
     27 ****       -0.6470    0.7249    1.0916 H       1  WATER21111    0.0196
     28 ****        0.2134    0.2922   -1.8504 H       1  WATER21111    0.0110
     29 ****       -0.3107   -2.0370   -1.7156 H       1  WATER21111    0.0076
     30 ****       -0.6454   -1.9917    0.0251 H       1  WATER21111    0.0077
     31 ****       -2.3305   -0.9422   -2.3147 H       1  WATER21111    0.0114
     32 ****       -2.7413   -2.1660   -1.1034 H       1  WATER21111    0.0179
     33 ****       -1.8906    1.3834   -1.6332 H       1  WATER21111    0.0122
     34 ****       -2.6419    3.3294   -0.5587 H       1  WATER21111    0.0160
     35 ****       -2.9025    2.5494    1.0147 H       1  WATER21111    0.0160
     36 ****       -5.1104    2.1445    0.2555 H       1  WATER21111    0.0362
     37 ****       -4.6741    2.5172   -1.4313 H       1  WATER21111    0.0368
     38 ****       -3.8128   -1.4696    1.0891 H       1  WATER21111    0.0063
     39 ****       -2.1776   -0.9534    1.5674 H       1  WATER21111    0.0005
     40 ****       -3.5442    0.1661    1.7492 H       1  WATER21111   -0.0050
     41 ****        1.1868   -0.5224    1.8136 H       1  WATER21111   -0.0006
     42 ****        2.8386   -1.0206    1.3837 H       1  WATER21111   -0.0037
     43 ****        4.0132    2.2696   -0.8240 H       1  WATER21111    0.0773
     44 ****        5.3811    0.5620   -2.2478 O.2     1  WATER21111   -0.2862
     45 ****       -0.2518    3.0975    0.6528 H       1  WATER21111    0.0078
     46 ****        0.2887    2.7920   -1.0084 H       1  WATER21111    0.0146
     47 ****        3.3146    2.4681    1.7606 H       1  WATER21111    0.0506
     48 C48         1.7494    3.8389    2.3705 C.3     1  WATER21111    0.0600
     49 ****        2.5255    4.1862    3.0838 H       1  WATER21111   -0.0002
     50 ****        1.4295    4.7215    1.7782 H       1  WATER21111    0.0034
     51 ****        0.8821    3.4931    2.9713 H       1  WATER21111    0.0019
@<TRIPOS>BOND
     1     1    23    1
     2     1    22    1
     3     1     2    1
     4     2    25    1
     5     2    24    1
     6     2     3    1
     7     3     5    2
     8     5    43    1
     9     5     6    2
    10     6     7    2
    11     7     8    1
    12     8    46    1
    13     8    45    1
    14     8     9    1
    15     9    15    1
    16    14    15    1
    17    13    14    1
    18    13    32    1
    19    13    31    1
    20    12    13    1
    21    12    29    1
    22    12    30    1
    23    10    12    1
    24     9    10    1
    25    10    28    1
    26    10    11    1
    27    11    20    1
    28    20    26    1
    29    20    42    1
    30    20    41    1
    31     6    11    1
    32     1    11    1
    33    14    18    1
    34    17    18    1
    35    16    17    1
    36    15    16    1
    37    16    34    1
    38    16    35    1
    39    17    37    1
    40    17    36    1
    41    18    21    2
    42    14    19    1
    43    19    38    1
    44    19    39    1
    45    19    40    1
    46    15    33    1
    47     9    27    1
    48     7     4    2
    49     4    48    1
    50    48    49    1
    51    48    50    1
    52    48    51    1
    53     4    47    1
    54     3    44    2
