@<TRIPOS>MOLECULE
56
 48 51 0 0 0
SMALL
GASTEIGER

@<TRIPOS>ATOM
      1 C1          2.4058   -1.3393   -1.1059 C.2     1  WATER21111   -0.0282
      2 C2          3.5103   -1.0703   -1.8270 C.1     1  WATER21111   -0.1385
      3 C3          4.1427    0.2762   -1.8461 C.1     1  WATER21111    0.2818
      4 ****        0.2990    2.8407   -0.8355 H       1  WATER21111    0.0137
      5 C5          3.4880    1.3123   -0.9710 C.1     1  WATER21111   -0.0861
      6 C5          2.3857    1.0355   -0.2102 C.1     1  WATER21111    0.0312
      7 C6          1.6944    2.0711    0.6087 C.1     1  WATER21111   -0.1238
      8 C7          0.2725    2.3302    0.1548 C.3     1  WATER21111    0.0524
      9 ****       -0.5521    1.0183    0.0870 C.3     1  WATER21111   -0.0163
     10 ****        0.2038   -0.1141   -0.7044 C.3     1  WATER21111   -0.0054
     11 ****        1.6905   -0.3473   -0.1903 C.3     1  WATER21111   -0.0101
     12 ****       -0.6563   -1.4045   -0.8459 C.3     1  WATER21111   -0.0041
     13 ****       -2.1377   -1.2024   -1.2468 C.3     1  WATER21111    0.0223
     14 ****       -2.8481   -0.0950   -0.4252 C.3     1  WATER21111   -0.1180
     15 ****       -1.9580    1.2017   -0.5436 C.3     1  WATER21111   -0.0275
     16 ****       -2.8959    2.3722   -0.1522 C.3     1  WATER21111   -0.0013
     17 ****       -4.2884    1.9526   -0.6781 C.3     1  WATER21111   -0.0515
     18 ****       -4.1987    0.4456   -0.9808 C.2     1  WATER21111    0.2324
     19 ****       -3.1510   -0.6007    1.0151 C.3     1  WATER21111    0.0542
     20 ****        1.8020   -0.9450    1.2467 C.3     1  WATER21111    0.0530
     21 ****       -5.0536   -0.2060   -1.5563 O.2     1  WATER21111   -0.2715
     22 ****        3.2765    2.5147    2.0009 H       1  WATER21111    0.0476
     23 ****        1.9973   -2.3537   -1.1308 H       1  WATER21111    0.0618
     24 ****        1.7419    3.4523    2.2535 H       1  WATER21111    0.0395
     25 ****        3.9792   -1.8465   -2.4367 H       1  WATER21111    0.0816
     26 ****        1.4235   -1.9860    1.2918 H       1  WATER21111   -0.0013
     27 ****       -0.6856    0.6924    1.1464 H       1  WATER21111    0.0186
     28 ****        0.3328    0.2645   -1.7527 H       1  WATER21111    0.0127
     29 ****       -0.2077   -2.0520   -1.6341 H       1  WATER21111    0.0064
     30 ****       -0.6226   -2.0019    0.0916 H       1  WATER21111    0.0081
     31 ****       -2.1916   -0.9643   -2.3336 H       1  WATER21111    0.0119
     32 ****       -2.6661   -2.1753   -1.1324 H       1  WATER21111    0.0181
     33 ****       -1.7702    1.3711   -1.6397 H       1  WATER21111    0.0122
     34 ****       -2.5704    3.3251   -0.6193 H       1  WATER21111    0.0171
     35 ****       -2.9204    2.5560    0.9419 H       1  WATER21111    0.0164
     36 ****       -5.0846    2.1513    0.0696 H       1  WATER21111    0.0363
     37 ****       -4.5602    2.5204   -1.5929 H       1  WATER21111    0.0371
     38 ****       -3.8764   -1.4402    0.9888 H       1  WATER21111    0.0061
     39 ****       -2.2503   -0.9724    1.5411 H       1  WATER21111    0.0000
     40 ****       -3.5887    0.1887    1.6587 H       1  WATER21111   -0.0042
     41 ****        1.2388   -0.3640    2.0017 H       1  WATER21111    0.0032
     42 C39         2.2603    2.7018    1.6573 C.2     1  WATER21111    0.0140
     43 ****        2.8616   -0.9699    1.5761 H       1  WATER21111    0.0010
     44 N44         4.0314    2.6446   -0.9366 N.2     1  WATER21111   -0.2274
     45 ****        5.1279    0.5234   -2.5383 O.2     1  WATER21111   -0.3018
     46 ****       -0.2300    3.0405    0.8491 H       1  WATER21111    0.0075
     47 ****        3.8495    3.1000   -1.8208 H       1  WATER21111    0.1077
     48 ****        5.0369    2.6078   -0.8494 H       1  WATER21111    0.1113
@<TRIPOS>BOND
     1     1     2    2
     2     2    25    1
     3     2     3    2
     4     3     5    2
     5     5    44    2
     6    44    47    1
     7    44    48    1
     8     5     6    2
     9     6    11    1
    10    10    11    1
    11    10    12    1
    12    12    13    1
    13    13    31    1
    14    13    14    1
    15    14    18    1
    16    18    21    2
    17    17    18    1
    18    16    17    1
    19    15    16    1
    20    14    15    1
    21    15    33    1
    22     9    15    1
    23     9    10    1
    24     9    27    1
    25     8     9    1
    26     8     4    1
    27     8    46    1
    28     7     8    1
    29     6     7    2
    30     7    42    2
    31    42    22    1
    32    42    24    1
    33    16    35    1
    34    16    34    1
    35    17    36    1
    36    17    37    1
    37    14    19    1
    38    19    38    1
    39    19    39    1
    40    19    40    1
    41    13    32    1
    42    12    29    1
    43    12    30    1
    44    10    28    1
    45     1    11    1
    46    11    20    1
    47    20    26    1
    48    20    43    1
    49    20    41    1
    50     3    45    2
    51     1    23    1
