@<TRIPOS>MOLECULE
66
 60 64 0 0 0
SMALL
GASTEIGER

@<TRIPOS>ATOM
      1 ****        2.2316   -1.2622   -1.3298 C.3     1  WATER21111    0.0080
      2 ****        3.7434   -1.2482   -1.3067 C.3     1  WATER21111   -0.0513
      3 C3          4.3020    0.1217   -1.5654 C.1     1  WATER21111    0.2490
      4 ****       -0.2856    3.3913    1.1155 C.3     1  WATER21111    0.0881
      5 C5          3.5244    1.2396   -1.0199 C.1     1  WATER21111   -0.1248
      6 C5          2.3009    1.0873   -0.4774 C.1     1  WATER21111   -0.0128
      7 C6          1.5811    2.2220    0.0716 C.1     1  WATER21111   -0.0491
      8 C7          0.2686    2.2119    0.3838 C.2     1  WATER21111   -0.0922
      9 ****       -0.5816    0.9983    0.1654 C.3     1  WATER21111    0.0299
     10 ****        0.1298   -0.0003   -0.7821 C.3     1  WATER21111   -0.0234
     11 ****        1.5975   -0.2442   -0.3747 C.3     1  WATER21111   -0.0506
     12 ****       -0.6519   -1.2979   -0.9333 C.3     1  WATER21111   -0.0093
     13 ****       -2.0831   -1.0717   -1.3862 C.3     1  WATER21111    0.0180
     14 ****       -2.7755   -0.0800   -0.4739 C.3     1  WATER21111   -0.1342
     15 ****       -1.9538    1.2371   -0.4523 C.3     1  WATER21111   -0.0261
     16 ****       -2.9499    2.2589    0.0939 C.3     1  WATER21111   -0.0056
     17 ****       -4.2857    1.8588   -0.5373 C.3     1  WATER21111   -0.0560
     18 ****       -4.1393    0.4117   -0.9529 C.2     1  WATER21111    0.2342
     19 ****       -3.0036   -0.6876    0.9039 C.3     1  WATER21111    0.0498
     20 ****        1.7092   -0.7582    1.0560 C.3     1  WATER21111    0.0478
     21 ****       -4.9769   -0.2496   -1.5596 O.2     1  WATER21111   -0.2748
     22 ****        1.8823   -1.0501   -2.3753 H       1  WATER21111    0.0142
     23 ****        1.8790   -2.2912   -1.0538 H       1  WATER21111    0.0150
     24 ****        4.1230   -1.5873   -0.3049 H       1  WATER21111    0.0320
     25 ****        4.1373   -1.9673   -2.0734 H       1  WATER21111    0.0376
     26 ****        1.1141   -1.6943    1.1793 H       1  WATER21111    0.0016
     27 ****       -0.7167    0.5178    1.1776 H       1  WATER21111    0.0269
     28 ****        0.1644    0.4865   -1.8018 H       1  WATER21111    0.0193
     29 ****       -0.1488   -1.9472   -1.6987 H       1  WATER21111    0.0127
     30 ****       -0.6453   -1.8618    0.0356 H       1  WATER21111    0.0119
     31 ****       -2.0931   -0.6821   -2.4378 H       1  WATER21111    0.0141
     32 ****       -2.6401   -2.0445   -1.3833 H       1  WATER21111    0.0230
     33 ****       -1.7712    1.5349   -1.5290 H       1  WATER21111    0.0177
     34 ****       -2.6631    3.3012   -0.1920 H       1  WATER21111    0.0276
     35 ****       -3.0219    2.2021    1.2084 H       1  WATER21111    0.0172
     36 ****       -5.1321    1.9683    0.1846 H       1  WATER21111    0.0392
     37 ****       -4.5141    2.4872   -1.4345 H       1  WATER21111    0.0400
     38 ****       -3.7175   -1.5433    0.8173 H       1  WATER21111    0.0092
     39 ****       -2.0513   -1.0687    1.3417 H       1  WATER21111    0.0027
     40 ****       -3.4354    0.0703    1.6010 H       1  WATER21111   -0.0021
     41 ****        1.3331    0.0062    1.7777 H       1  WATER21111    0.0012
     42 ****        2.1836    3.1300    0.2531 H       1  WATER21111    0.0624
     43 ****        2.7753   -0.9801    1.3039 H       1  WATER21111   -0.0006
     44 ****        4.0028    2.2310   -1.0865 H       1  WATER21111    0.0796
     45 ****        5.3638    0.2910   -2.1777 O.2     1  WATER21111   -0.2912
     46 ****       -1.2613    3.1249    1.6039 H       1  WATER21111    0.0098
     47 ****        0.4241    3.6354    1.9587 H       1  WATER21111    0.0069
     48 ****       -0.4691    4.6164    0.2885 C.ar    2  <2>222     -0.1404
     49 ****       -0.6375    4.5635   -1.0983 C.ar    2  <2>222     -0.0030
     50 ****       -0.8255    5.7207   -1.8433 C.ar    2  <2>222     -0.1185
     51 ****       -0.8591    6.9844   -1.2091 C.ar    2  <2>222      0.0917
     52 ****       -0.6778    7.0341    0.1936 C.ar    2  <2>222     -0.1178
     53 ****       -0.4905    5.8664    0.9201 C.ar    2  <2>222     -0.0033
     54 ****       -0.6152    3.5872   -1.6096 H       2  <2>222      0.0565
     55 ****       -0.9551    5.6456   -2.9333 H       2  <2>222      0.0626
     56 N56        -1.1438    8.1443   -1.9357 N.pl3   2  <2>222     -0.2809
     57 ****       -0.6912    8.0011    0.7183 H       2  <2>222      0.0624
     58 ****       -0.3538    5.9267    2.0111 H       2  <2>222      0.0574
     59 ****       -0.9299    8.0856   -2.9064 H       2  <2>222      0.1454
     60 ****       -0.8224    8.9856   -1.5110 H       2  <2>222      0.1452
@<TRIPOS>BOND
     1     1    23    1
     2     1    11    1
     3    11    20    1
     4    20    41    1
     5    20    26    1
     6    20    43    1
     7     6    11    1
     8     6     7    2
     9     7     8    2
    10     8     9    1
    11     9    27    1
    12     9    10    1
    13    10    28    1
    14    10    11    1
    15    10    12    1
    16    12    13    1
    17    13    32    1
    18    13    31    1
    19    13    14    1
    20    14    18    1
    21    17    18    1
    22    17    37    1
    23    17    36    1
    24    16    17    1
    25    16    35    1
    26    16    34    1
    27    15    16    1
    28     9    15    1
    29    14    15    1
    30    15    33    1
    31    18    21    2
    32    14    19    1
    33    19    38    1
    34    19    40    1
    35    19    39    1
    36    12    29    1
    37    12    30    1
    38     8     4    1
    39     4    47    1
    40     4    48    1
    41    48    49   ar
    42    49    54    1
    43    49    50   ar
    44    50    55    1
    45    50    51   ar
    46    51    52   ar
    47    52    53   ar
    48    53    58    1
    49    53    48   ar
    50    52    57    1
    51    51    56    1
    52    56    59    1
    53    56    60    1
    54     4    46    1
    55     7    42    1
    56     5     6    2
    57     3     5    2
    58     3    45    2
    59     2     3    1
    60     2    25    1
    61     1     2    1
    62     2    24    1
    63     5    44    1
    64     1    22    1
