@<TRIPOS>MOLECULE
CPD_26-b
 72 74 0 0 0
SMALL
GASTEIGER

@<TRIPOS>ATOM
      1 C1          3.6202   -8.4185   13.6434 C.3     1  TOS111     -0.1849
      2 ****        4.4852   -6.2168   14.6091 H       1  TOS111      0.1417
      3 C3          9.1558   -6.6486   14.5225 C.3     1  TOS111     -0.1651
      4 C4          8.7819   -9.3014   13.4748 C.3     1  TOS111     -0.2061
      5 ****        6.8692   -5.0523   15.0720 O.3     1  TOS111     -0.2284
      6 ****        5.7800   -4.1716   15.4043 C.3     1  TOS111     -0.0603
      7 ****        6.1959   -3.2248   15.7767 H       1  TOS111      0.1145
      8 ****        6.7461   -9.2805   10.4257 H       2  APM222      0.1226
      9 ****        5.2286  -10.4596    8.6727 H       2  APM222      0.1151
     10 ****        6.1518   -9.0752    8.0829 H       2  APM222      0.1106
     11 ****        2.7960  -10.3269    8.5640 H       2  APM222      0.1317
     12 ****        5.1022   -6.8205    7.7475 H       2  APM222      0.1645
     13 ****        3.0862   -5.6822    6.9037 H       2  APM222      0.1640
     14 ****        0.9001   -6.7529    7.0531 H       2  APM222      0.1343
     15 ****        4.0088  -10.0837   10.9713 H       2  APM222      0.2266
     16 ****       -1.5952   -9.4185    7.0200 H       2  APM222      0.2729
     17 ****       -0.5645   -8.1326    6.4000 H       2  APM222      0.2932
     18 ****        0.8269  -10.8033    9.1405 H       2  APM222      0.2947
     19 ****       -0.7976  -10.9455    8.4772 H       2  APM222      0.2729
     20 ****        7.5501   -6.2980    8.4213 H       3  PIP333      0.0757
     21 ****        7.8431   -7.8426    9.2004 H       3  PIP333      0.0982
     22 ****        9.6689   -6.2645    9.6900 H       3  PIP333      0.0953
     23 ****        8.8180   -6.7722   11.1705 H       3  PIP333      0.0942
     24 ****        8.4231   -4.1083    9.6598 H       3  PIP333      0.0853
     25 C25         9.5237   -4.1121   11.5240 C.3     3  PIP333     -0.2096
     26 ****        6.8025   -3.5016   11.4827 H       3  PIP333      0.0933
     27 ****        7.0080   -5.1033   12.2285 H       3  PIP333      0.1029
     28 ****        4.9499   -5.0210   10.8490 H       3  PIP333      0.1229
     29 ****        5.8978   -4.5980    9.4149 H       3  PIP333      0.0714
     30 S           5.7572  -10.4511   12.5989 S.O2    1  TOS111      2.6299
     31 O1          6.8853  -11.2012   12.0984 O.2     1  TOS111     -0.8826
     32 O2          4.8114  -11.1613   13.4388 O.2     1  TOS111     -0.8686
     33 C1          6.1993   -8.8921   13.4114 C.ar    1  TOS111     -0.7240
     34 C2          5.1179   -8.0714   13.7813 C.ar    1  TOS111      0.0692
     35 C3          5.3474   -6.8144   14.3413 C.ar    1  TOS111     -0.2328
     36 C4          6.6425   -6.3395   14.5557 C.ar    1  TOS111      0.1570
     37 C5          7.7267   -7.1701   14.2457 C.ar    1  TOS111     -0.1267
     38 C6          7.5108   -8.4519   13.7004 C.ar    1  TOS111      0.0648
     39 ****        5.1539   -4.6051   16.2000 H       1  TOS111      0.0759
     40 C           5.4607   -7.5447   10.4804 C.2     2  APM222      0.2773
     41 CA          5.6985   -9.0156   10.2281 C.3     2  APM222      0.0481
     42 CB          5.3334   -9.3671    8.7569 C.3     2  APM222     -0.1255
     43 CG          4.0642   -8.6521    8.2496 C.ar    2  APM222     -0.0539
     44 CD1         2.8226   -9.2975    8.2334 C.ar    2  APM222     -0.0733
     45 CD2         4.1513   -7.3403    7.7693 C.ar    2  APM222     -0.0522
     46 CE1         1.6514   -8.6579    7.7895 C.ar    2  APM222     -0.1445
     47 CE2         3.0084   -6.6893    7.3047 C.ar    2  APM222     -0.1112
     48 CZ          1.7672   -7.3280    7.3552 C.ar    2  APM222     -0.0824
     49 CF          0.3077   -9.3755    7.7717 C.3     2  APM222      0.3414
     50 O           4.4145   -7.2977   11.0569 O.2     2  APM222     -0.3745
     51 N           4.9557   -9.8372   11.1798 N.3     2  APM222     -0.8340
     52 NG1        -0.6788   -8.9445    7.0190 N.3     2  APM222     -0.3310
     53 NG2         0.1031  -10.4438    8.5071 N.3     2  APM222     -0.3282
     54 N1          6.3055   -6.5448   10.0904 N.am    3  PIP333     -0.3357
     55 C2          7.5778   -6.7982    9.4009 C.3     3  PIP333     -0.0187
     56 C3          8.7196   -6.1819   10.2470 C.3     3  PIP333     -0.1744
     57 C4          8.4230   -4.6940   10.5961 C.3     3  PIP333     -0.0998
     58 C5          7.0287   -4.5594   11.2729 C.3     3  PIP333     -0.1771
     59 C6          5.9306   -5.1551   10.3638 C.3     3  PIP333     -0.0139
     60 ****       10.5264   -4.2627   11.0956 H       3  PIP333      0.0794
     61 ****        9.4844   -4.6118   12.4983 H       3  PIP333      0.0795
     62 ****        9.3734   -3.0349   11.6927 H       3  PIP333      0.0815
     63 ****        5.1682   -3.9504   14.5154 H       1  TOS111      0.0669
     64 ****        3.3672   -9.3332   13.1044 H       1  TOS111      0.0820
     65 ****        3.0964   -7.5951   13.1344 H       1  TOS111      0.1002
     66 ****        3.2035   -8.5050   14.6575 H       1  TOS111      0.0977
     67 ****        9.1757   -5.6160   14.8984 H       1  TOS111      0.0999
     68 ****        9.7577   -6.6681   13.6044 H       1  TOS111      0.0760
     69 ****        9.6555   -7.2694   15.2792 H       1  TOS111      0.0874
     70 ****        8.6346  -10.3143   13.1118 H       1  TOS111      0.1152
     71 ****        9.3066   -9.4210   14.4330 H       1  TOS111      0.1007
     72 ****        9.4534   -8.8093   12.7565 H       1  TOS111      0.0909
@<TRIPOS>BOND
     1    34     1    1
     2    35     2    1
     3    37     3    1
     4    38     4    1
     5    36     5    1
     6     5     6    1
     7     6     7    1
     8    41     8    1
     9    42     9    1
    10    42    10    1
    11    44    11    1
    12    45    12    1
    13    47    13    1
    14    48    14    1
    15    51    15    1
    16    52    16    1
    17    52    17    1
    18    53    18    1
    19    53    19    1
    20    55    20    1
    21    55    21    1
    22    56    22    1
    23    56    23    1
    24    57    24    1
    25    57    25    1
    26    58    26    1
    27    58    27    1
    28    59    28    1
    29    59    29    1
    30    30    33    1
    31    30    32    2
    32    30    31    2
    33    33    38   ar
    34    33    34   ar
    35    34    35   ar
    36    35    36   ar
    37     6    39    1
    38    36    37   ar
    39    37    38   ar
    40    40    50    2
    41    40    41    1
    42    41    51    1
    43    41    42    1
    44    42    43    1
    45    43    45   ar
    46    43    44   ar
    47    44    46   ar
    48    46    49    1
    49    46    48   ar
    50    48    47   ar
    51    47    45   ar
    52    49    53    1
    53    49    52    1
    54    59    54    1
    55    54    55    1
    56    55    56    1
    57    56    57    1
    58    57    58    1
    59    58    59    1
    60    40    54   am
    61    51    30    1
    62    25    60    1
    63    25    61    1
    64    25    62    1
    65     6    63    1
    66     1    64    1
    67     1    65    1
    68     1    66    1
    69     3    67    1
    70     3    68    1
    71     3    69    1
    72     4    70    1
    73     4    71    1
    74     4    72    1
