@<TRIPOS>MOLECULE
CPD_21-b
 60 63 0 0 0
SMALL
GASTEIGER

@<TRIPOS>ATOM
      1 C1          3.8871   -6.3493   15.2785 C.ar    4  NAPHTHALENE44   -0.1008
      2 C2          4.0740   -5.1368   15.9468 C.ar    4  NAPHTHALENE44   -0.1297
      3 C3          5.3493   -4.5716   16.0206 C.ar    4  NAPHTHALENE44   -0.0974
      4 C4          6.4361   -5.2224   15.4297 C.ar    4  NAPHTHALENE44   -0.1364
      5 ****        6.7478   -9.3129   10.4237 H       2  APM222      0.1260
      6 ****        5.2819  -10.4914    8.6338 H       2  APM222      0.1169
      7 ****        6.1941   -9.0918    8.0495 H       2  APM222      0.1109
      8 ****        2.8166  -10.4027    8.5103 H       2  APM222      0.1338
      9 ****        5.1155   -6.8605    7.7295 H       2  APM222      0.1637
     10 ****        3.0510   -5.6444    7.1368 H       2  APM222      0.1648
     11 ****        0.8595   -6.7715    7.2770 H       2  APM222      0.1347
     12 ****        3.9196   -9.9098   10.9407 H       2  APM222      0.2262
     13 ****       -1.5543   -9.3660    7.0985 H       2  APM222      0.2728
     14 ****       -0.5018   -8.0417    6.5751 H       2  APM222      0.2967
     15 ****        0.9598  -10.8893    9.0816 H       2  APM222      0.2978
     16 ****       -0.7072  -11.0143    8.4962 H       2  APM222      0.2732
     17 ****        7.6618   -6.2137    8.5338 H       3  PIP333      0.0961
     18 ****        7.8698   -7.8244    9.2268 H       3  PIP333      0.1069
     19 ****        9.6659   -6.2808   10.0255 H       3  PIP333      0.1203
     20 ****        8.6482   -6.7987   11.3962 H       3  PIP333      0.0814
     21 ****        6.9452   -3.5331   11.4745 H       3  PIP333      0.1196
     22 ****        7.0277   -5.1071   12.3056 H       3  PIP333      0.0886
     23 ****        4.9793   -5.0270   10.8946 H       3  PIP333      0.1339
     24 ****        5.9426   -4.5898    9.4661 H       3  PIP333      0.0860
     25 S           5.6031  -10.4373   12.6250 S.O2    1  TOS111      2.6194
     26 O1          6.8789  -11.0612   12.3302 O.2     1  TOS111     -0.8630
     27 O2          4.5869  -11.1836   13.3405 O.2     1  TOS111     -0.8631
     28 C5          7.3412   -7.1100   14.1880 C.ar    4  NAPHTHALENE44   -0.1322
     29 C6          7.1535   -8.3299   13.5326 C.ar    4  NAPHTHALENE44   -0.0643
     30 C7          5.8776   -8.8944   13.4590 C.ar    4  NAPHTHALENE44   -0.7313
     31 C8          4.7902   -8.2218   14.0212 C.ar    4  NAPHTHALENE44    0.0305
     32 C9          4.9742   -7.0060   14.6889 C.ar    4  NAPHTHALENE44   -0.0554
     33 C10         6.2552   -6.4437   14.7694 C.ar    4  NAPHTHALENE44    0.0079
     34 H1          2.8901   -6.7756   15.2238 H       4  NAPHTHALENE44    0.1371
     35 C           5.4682   -7.5577   10.4667 C.2     2  APM222      0.2729
     36 CA          5.7116   -9.0279   10.1929 C.3     2  APM222      0.0445
     37 CB          5.3766   -9.3973    8.7196 C.3     2  APM222     -0.1231
     38 CG          4.0937   -8.6949    8.2429 C.ar    2  APM222     -0.0543
     39 CD1         2.8590   -9.3553    8.2333 C.ar    2  APM222     -0.0754
     40 CD2         4.1597   -7.3683    7.8019 C.ar    2  APM222     -0.0560
     41 CE1         1.6873   -8.6840    7.8597 C.ar    2  APM222     -0.1490
     42 CE2         2.9954   -6.6823    7.4509 C.ar    2  APM222     -0.1042
     43 CZ          1.7601   -7.3316    7.5062 C.ar    2  APM222     -0.0856
     44 CF          0.3501   -9.4015    7.8314 C.3     2  APM222      0.3323
     45 O           4.4184   -7.3205   11.0439 O.2     2  APM222     -0.3698
     46 N           4.8996   -9.8104   11.1162 N.3     2  APM222     -0.8257
     47 NG1        -0.6339   -8.9020    7.1267 N.3     2  APM222     -0.3269
     48 NG2         0.1919  -10.5095    8.5097 N.3     2  APM222     -0.3241
     49 N1          6.3159   -6.5496   10.1066 N.am    3  PIP333     -0.3432
     50 C2          7.6130   -6.7877    9.4726 C.3     3  PIP333     -0.0547
     51 C3          8.6563   -6.2152   10.4615 C.3     3  PIP333     -0.0412
     52 O4          8.3760   -4.8261   10.7284 O.3     3  PIP333     -0.2612
     53 C5          7.0788   -4.6158   11.3221 C.3     3  PIP333     -0.0456
     54 C6          5.9576   -5.1634   10.4066 C.3     3  PIP333     -0.0448
     55 H2          3.2292   -4.6347   16.4086 H       4  NAPHTHALENE44    0.1418
     56 H3          5.4949   -3.6279   16.5372 H       4  NAPHTHALENE44    0.1432
     57 H4          7.4205   -4.7686   15.4904 H       4  NAPHTHALENE44    0.1430
     58 H5          8.3389   -6.6848   14.2401 H       4  NAPHTHALENE44    0.1445
     59 H6          8.0005   -8.8368   13.0828 H       4  NAPHTHALENE44    0.1481
     60 H8          3.8004   -8.6568   13.9327 H       4  NAPHTHALENE44    0.1431
@<TRIPOS>BOND
     1    25    30    1
     2    28    29   ar
     3    28    33   ar
     4    28    58    1
     5    33     4   ar
     6    33    32   ar
     7    32     1   ar
     8    36     5    1
     9    37     6    1
    10    37     7    1
    11    39     8    1
    12    40     9    1
    13    42    10    1
    14    43    11    1
    15    46    12    1
    16    47    13    1
    17    47    14    1
    18    48    15    1
    19    48    16    1
    20    50    17    1
    21    50    18    1
    22    51    19    1
    23    51    20    1
    24    53    21    1
    25    53    22    1
    26    54    23    1
    27    54    24    1
    28    32    31   ar
    29    25    27    2
    30    25    26    2
    31    31    30   ar
    32    31    60    1
    33    30    29   ar
    34    29    59    1
    35     1     2   ar
    36     1    34    1
    37    35    45    2
    38    35    36    1
    39    36    46    1
    40    36    37    1
    41    37    38    1
    42    38    40   ar
    43    38    39   ar
    44    39    41   ar
    45    41    44    1
    46    41    43   ar
    47    43    42   ar
    48    42    40   ar
    49    44    48    1
    50    44    47    1
    51    54    49    1
    52    49    50    1
    53    50    51    1
    54    51    52    1
    55    52    53    1
    56    53    54    1
    57    35    49   am
    58    46    25    1
    59     2     3   ar
    60     2    55    1
    61     3     4   ar
    62     3    56    1
    63     4    57    1
