@<TRIPOS>MOLECULE
CPD_34-b
 69 72 0 0 0
SMALL
GASTEIGER

@<TRIPOS>ATOM
      1 C1          3.8883   -6.3660   15.3010 C.ar    4  NAPHTHALENE44   -0.0980
      2 C2          4.0586   -5.1493   15.9683 C.ar    4  NAPHTHALENE44   -0.1301
      3 C3          5.3273   -4.5717   16.0532 C.ar    4  NAPHTHALENE44   -0.0937
      4 C4          6.4270   -5.2184   15.4827 C.ar    4  NAPHTHALENE44   -0.1396
      5 ****        6.7708   -9.3104   10.3982 H       2  APM222      0.1281
      6 ****        5.2425  -10.4915    8.6599 H       2  APM222      0.1161
      7 ****        6.1607   -9.1135    8.0480 H       2  APM222      0.1109
      8 ****        2.8375  -10.3750    8.5023 H       2  APM222      0.1345
      9 ****        5.1118   -6.8540    7.7440 H       2  APM222      0.1628
     10 ****        3.0761   -5.6719    7.0104 H       2  APM222      0.1654
     11 ****        0.9059   -6.7243    7.1993 H       2  APM222      0.1365
     12 ****        3.9716   -9.9459   10.9966 H       2  APM222      0.2287
     13 ****       -1.5927   -9.3772    7.0694 H       2  APM222      0.2715
     14 ****       -0.5703   -8.0823    6.4840 H       2  APM222      0.2936
     15 ****        0.8531  -10.8788    9.0907 H       2  APM222      0.2945
     16 ****       -0.7755  -10.9794    8.4547 H       2  APM222      0.2716
     17 ****        7.5445   -6.2353    8.4236 H       3  PIP333      0.0857
     18 ****        7.8144   -7.8218    9.1372 H       3  PIP333      0.1020
     19 ****        9.6636   -6.3065    9.7694 H       3  PIP333      0.1097
     20 ****        8.7217   -6.7949   11.2048 H       3  PIP333      0.0892
     21 ****        8.3584   -4.1751    9.6183 H       3  PIP333      0.1262
     22 C           9.5034   -4.1269   11.4336 C.2     5  CO255       0.3138
     23 ****        6.8205   -3.4930   11.4680 H       3  PIP333      0.1083
     24 ****        7.0209   -5.0875   12.2433 H       3  PIP333      0.0970
     25 ****        4.9454   -5.0544   10.8975 H       3  PIP333      0.1299
     26 ****        5.8516   -4.6040    9.4433 H       3  PIP333      0.0770
     27 S           5.6913  -10.4223   12.6297 S.O2    1  TOS111      2.6288
     28 O1          6.9866  -10.9951   12.3150 O.2     1  TOS111     -0.8669
     29 O2          4.7174  -11.2158   13.3528 O.2     1  TOS111     -0.8649
     30 C5          7.3642   -7.1329   14.3143 C.ar    4  NAPHTHALENE44   -0.1435
     31 C6          7.1924   -8.3093   13.5816 C.ar    4  NAPHTHALENE44   -0.0583
     32 C7          5.9240   -8.8844   13.4858 C.ar    4  NAPHTHALENE44   -0.7336
     33 C8          4.8242   -8.2317   14.0496 C.ar    4  NAPHTHALENE44    0.0384
     34 C9          4.9864   -7.0183   14.7288 C.ar    4  NAPHTHALENE44   -0.0553
     35 C10         6.2628   -6.4519   14.8414 C.ar    4  NAPHTHALENE44    0.0102
     36 H1          2.8947   -6.7978   15.2333 H       4  NAPHTHALENE44    0.1373
     37 C           5.4855   -7.5675   10.4968 C.2     2  APM222      0.2719
     38 CA          5.7253   -9.0328   10.2021 C.3     2  APM222      0.0433
     39 CB          5.3514   -9.3981    8.7357 C.3     2  APM222     -0.1222
     40 CG          4.0793   -8.6836    8.2428 C.ar    2  APM222     -0.0595
     41 CD1         2.8425   -9.3334    8.2167 C.ar    2  APM222     -0.0732
     42 CD2         4.1593   -7.3645    7.7874 C.ar    2  APM222     -0.0533
     43 CE1         1.6641   -8.6756    7.8204 C.ar    2  APM222     -0.1440
     44 CE2         3.0085   -6.6917    7.3773 C.ar    2  APM222     -0.1108
     45 CZ          1.7704   -7.3268    7.4432 C.ar    2  APM222     -0.0828
     46 CF          0.3198   -9.3856    7.7934 C.3     2  APM222      0.3435
     47 O           4.4731   -7.3444   11.1423 O.2     2  APM222     -0.3694
     48 N           4.9528   -9.8256   11.1507 N.3     2  APM222     -0.8295
     49 NG1        -0.6747   -8.9141    7.0743 N.3     2  APM222     -0.3293
     50 NG2         0.1251  -10.4844    8.4869 N.3     2  APM222     -0.3269
     51 N1          6.2981   -6.5500   10.0861 N.am    3  PIP333     -0.3405
     52 C2          7.5622   -6.7835    9.3784 C.3     3  PIP333     -0.0197
     53 C3          8.6874   -6.2101   10.2728 C.3     3  PIP333     -0.1752
     54 C4          8.4018   -4.7171   10.5806 C.3     3  PIP333     -0.1388
     55 C5          7.0251   -4.5595   11.2780 C.3     3  PIP333     -0.1765
     56 C6          5.9155   -5.1674   10.3877 C.3     3  PIP333     -0.0124
     57 O          10.1525   -3.1990   10.9798 O.2     5  CO255      -0.3529
     58 N           9.7288   -4.6455   12.6627 N.am    5  CO255      -0.3896
     59 ****       10.7567   -4.1197   13.5529 C.3     5  CO255      -0.0737
     60 H2          3.2051   -4.6528   16.4196 H       4  NAPHTHALENE44    0.1424
     61 H3          5.4592   -3.6217   16.5619 H       4  NAPHTHALENE44    0.1436
     62 H4          7.4064   -4.7532   15.5430 H       4  NAPHTHALENE44    0.1398
     63 H5          8.3645   -6.7618   14.4829 H       4  NAPHTHALENE44    0.1342
     64 H6          8.0452   -8.7742   13.0991 H       4  NAPHTHALENE44    0.1487
     65 H8          3.8413   -8.6799   13.9523 H       4  NAPHTHALENE44    0.1427
     66 ****       11.4735   -4.9195   13.7958 H       5  CO255       0.0724
     67 ****       10.2865   -3.7758   14.4874 H       5  CO255       0.0679
     68 ****       11.3122   -3.2784   13.1160 H       5  CO255       0.1217
     69 ****        9.1981   -5.4084   13.0027 H       5  CO255       0.2242
@<TRIPOS>BOND
     1    27    32    1
     2    30    31   ar
     3    30    35   ar
     4    30    63    1
     5    35     4   ar
     6    35    34   ar
     7    34     1   ar
     8    38     5    1
     9    39     6    1
    10    39     7    1
    11    41     8    1
    12    42     9    1
    13    44    10    1
    14    45    11    1
    15    48    12    1
    16    49    13    1
    17    49    14    1
    18    50    15    1
    19    50    16    1
    20    52    17    1
    21    52    18    1
    22    53    19    1
    23    53    20    1
    24    54    21    1
    25    22    57    2
    26    55    23    1
    27    55    24    1
    28    56    25    1
    29    56    26    1
    30    34    33   ar
    31    27    29    2
    32    27    28    2
    33    33    32   ar
    34    33    65    1
    35    32    31   ar
    36    31    64    1
    37     1     2   ar
    38     1    36    1
    39    37    47    2
    40    37    38    1
    41    38    48    1
    42    38    39    1
    43    39    40    1
    44    40    42   ar
    45    40    41   ar
    46    41    43   ar
    47    43    46    1
    48    43    45   ar
    49    45    44   ar
    50    44    42   ar
    51    46    50    1
    52    46    49    1
    53    56    51    1
    54    51    52    1
    55    52    53    1
    56    53    54    1
    57    54    55    1
    58    55    56    1
    59    37    51   am
    60    48    27    1
    61    22    58   am
    62    54    22    1
    63    58    59    1
    64     2     3   ar
    65     2    60    1
    66     3     4   ar
    67     3    61    1
    68     4    62    1
    69    59    66    1
    70    59    67    1
    71    59    68    1
    72    58    69    1
