@<TRIPOS>MOLECULE
CPD_61-b
 79 83 0 0 0
SMALL
GASTEIGER

@<TRIPOS>ATOM
      1 C1          3.9020   -6.3647   15.2957 C.ar    4  NAPHTHALENE44   -0.1000
      2 C2          4.0706   -5.1490   15.9649 C.ar    4  NAPHTHALENE44   -0.1297
      3 C3          5.3385   -4.5693   16.0461 C.ar    4  NAPHTHALENE44   -0.0970
      4 C4          6.4357   -5.2052   15.4598 C.ar    4  NAPHTHALENE44   -0.1395
      5 ****        6.7777   -9.3015   10.3909 H       2  APM222      0.1281
      6 ****        5.2497  -10.4952    8.6568 H       2  APM222      0.1165
      7 ****        6.1655   -9.1191    8.0360 H       2  APM222      0.1109
      8 ****        2.7999  -10.3915    8.5104 H       2  APM222      0.1383
      9 ****        5.1108   -6.8627    7.7360 H       2  APM222      0.1632
     10 ****        3.0665   -5.6648    7.0543 H       2  APM222      0.1650
     11 ****        0.8699   -6.7611    7.2187 H       2  APM222      0.1401
     12 ****        3.9720   -9.9305   10.9796 H       2  APM222      0.2277
     13 ****       -1.4597   -9.5744    6.8343 H       2  APM222      0.2724
     14 ****       -0.3133   -8.4344    6.1188 H       2  APM222      0.2975
     15 ****        0.6952  -10.4906    9.4807 H       2  APM222      0.2991
     16 ****       -0.8671  -10.7783    8.7038 H       2  APM222      0.2725
     17 ****        7.5545   -6.1981    8.4195 H       3  PIP333      0.0864
     18 ****        7.8063   -7.8049    9.1057 H       3  PIP333      0.1012
     19 ****        9.6624   -6.3053    9.7773 H       3  PIP333      0.1094
     20 ****        8.7120   -6.8254   11.1980 H       3  PIP333      0.0900
     21 ****        8.4308   -4.1408    9.6944 H       3  PIP333      0.1308
     22 C           9.4611   -4.2692   11.6008 C.2     5  CO255       0.3037
     23 ****        6.8201   -3.4942   11.4760 H       3  PIP333      0.1084
     24 ****        6.9857   -5.0928   12.2520 H       3  PIP333      0.0979
     25 ****        4.9385   -5.0429   10.8738 H       3  PIP333      0.1294
     26 ****        5.8693   -4.5842    9.4337 H       3  PIP333      0.0774
     27 S           5.6804  -10.4167   12.6223 S.O2    1  TOS111      2.6292
     28 O1          6.9676  -11.0099   12.3154 O.2     1  TOS111     -0.8664
     29 O2          4.6929  -11.1903   13.3486 O.2     1  TOS111     -0.8665
     30 C5          7.3673   -7.0726   14.2076 C.ar    4  NAPHTHALENE44   -0.1442
     31 C6          7.1956   -8.2859   13.5343 C.ar    4  NAPHTHALENE44   -0.0585
     32 C7          5.9300   -8.8732   13.4650 C.ar    4  NAPHTHALENE44   -0.7326
     33 C8          4.8349   -8.2248   14.0401 C.ar    4  NAPHTHALENE44    0.0357
     34 C9          4.9997   -7.0060   14.7088 C.ar    4  NAPHTHALENE44   -0.0549
     35 C10         6.2720   -6.4257   14.7924 C.ar    4  NAPHTHALENE44    0.0118
     36 H1          2.9111   -6.8040   15.2386 H       4  NAPHTHALENE44    0.1368
     37 C           5.4888   -7.5596   10.4820 C.2     2  APM222      0.2722
     38 CA          5.7319   -9.0270   10.1921 C.3     2  APM222      0.0442
     39 CB          5.3579   -9.4016    8.7274 C.3     2  APM222     -0.1226
     40 CG          4.0801   -8.6935    8.2427 C.ar    2  APM222     -0.0561
     41 CD1         2.8404   -9.3470    8.2254 C.ar    2  APM222     -0.0780
     42 CD2         4.1555   -7.3715    7.7913 C.ar    2  APM222     -0.0591
     43 CE1         1.6721   -8.6786    7.8330 C.ar    2  APM222     -0.1521
     44 CE2         2.9999   -6.6913    7.4016 C.ar    2  APM222     -0.1068
     45 CZ          1.7601   -7.3324    7.4610 C.ar    2  APM222     -0.0881
     46 CF          0.3282   -9.3903    7.8039 C.3     2  APM222      0.3342
     47 O           4.4765   -7.3361   11.1277 O.2     2  APM222     -0.3704
     48 N           4.9532   -9.8162   11.1387 N.3     2  APM222     -0.8292
     49 NG1        -0.5384   -9.1114    6.8611 N.3     2  APM222     -0.3253
     50 NG2         0.0357  -10.2800    8.7192 N.3     2  APM222     -0.3220
     51 N1          6.2975   -6.5388   10.0689 N.am    3  PIP333     -0.3410
     52 C2          7.5637   -6.7673    9.3637 C.3     3  PIP333     -0.0200
     53 C3          8.6838   -6.2185   10.2780 C.3     3  PIP333     -0.1785
     54 C4          8.4073   -4.7323   10.6242 C.3     3  PIP333     -0.1303
     55 C5          7.0154   -4.5628   11.2870 C.3     3  PIP333     -0.1804
     56 C6          5.9159   -5.1557   10.3757 C.3     3  PIP333     -0.0123
     57 O          10.1757   -3.3391   11.2542 O.2     5  CO255      -0.3582
     58 N           9.5962   -4.8676   12.8070 N.am    5  CO255      -0.3924
     59 ****       10.6333   -4.3729   13.7012 C.3     5  CO255       0.0207
     60 H2          3.2169   -4.6568   16.4207 H       4  NAPHTHALENE44    0.1418
     61 H3          5.4702   -3.6249   16.5663 H       4  NAPHTHALENE44    0.1424
     62 H4          7.4152   -4.7413   15.5282 H       4  NAPHTHALENE44    0.1439
     63 H5          8.3601   -6.6393   14.2714 H       4  NAPHTHALENE44    0.1412
     64 H6          8.0477   -8.7688   13.0688 H       4  NAPHTHALENE44    0.1482
     65 H8          3.8534   -8.6799   13.9604 H       4  NAPHTHALENE44    0.1424
     66 ****       10.4279   -3.3153   13.9354 H       5  CO255       0.1008
     67 ****       11.6104   -4.4317   13.1936 H       5  CO255       0.1058
     68 ****       12.0812   -6.6414   14.2279 H       6  PHENYL66    0.1358
     69 C          10.7143   -5.1641   15.0107 C.ar    6  PHENYL66   -0.1168
     70 C          11.5368   -6.2913   15.1000 C.ar    6  PHENYL66   -0.1159
     71 C          11.6688   -6.9718   16.3138 C.ar    6  PHENYL66   -0.1257
     72 C          10.9509   -6.5370   17.4330 C.ar    6  PHENYL66   -0.1153
     73 C          10.1011   -5.4328   17.3394 C.ar    6  PHENYL66   -0.1274
     74 C           9.9737   -4.7544   16.1247 C.ar    6  PHENYL66   -0.1241
     75 ****       12.3283   -7.8314   16.3871 H       6  PHENYL66    0.1402
     76 ****       11.0543   -7.0633   18.3788 H       6  PHENYL66    0.1384
     77 ****        9.5421   -5.0978   18.2077 H       6  PHENYL66    0.1377
     78 ****        9.3013   -3.9066   16.0528 H       6  PHENYL66    0.1308
     79 ****        9.0121   -5.6271   13.1114 H       5  CO255       0.2374
@<TRIPOS>BOND
     1    27    32    1
     2    30    31   ar
     3    30    35   ar
     4    30    63    1
     5    35     4   ar
     6    35    34   ar
     7    34     1   ar
     8    38     5    1
     9    39     6    1
    10    39     7    1
    11    41     8    1
    12    42     9    1
    13    44    10    1
    14    45    11    1
    15    48    12    1
    16    49    13    1
    17    49    14    1
    18    50    15    1
    19    50    16    1
    20    52    17    1
    21    52    18    1
    22    53    19    1
    23    53    20    1
    24    54    21    1
    25    22    57    2
    26    55    23    1
    27    55    24    1
    28    56    25    1
    29    56    26    1
    30    34    33   ar
    31    27    29    2
    32    27    28    2
    33    33    32   ar
    34    33    65    1
    35    32    31   ar
    36    31    64    1
    37     1     2   ar
    38     1    36    1
    39    37    47    2
    40    37    38    1
    41    38    48    1
    42    38    39    1
    43    39    40    1
    44    40    42   ar
    45    40    41   ar
    46    41    43   ar
    47    43    46    1
    48    43    45   ar
    49    45    44   ar
    50    44    42   ar
    51    46    50    1
    52    46    49    1
    53    56    51    1
    54    51    52    1
    55    52    53    1
    56    53    54    1
    57    54    55    1
    58    55    56    1
    59    37    51   am
    60    48    27    1
    61    22    58   am
    62    54    22    1
    63    58    59    1
    64     2     3   ar
    65     2    60    1
    66     3     4   ar
    67     3    61    1
    68     4    62    1
    69    59    66    1
    70    59    67    1
    71    59    69    1
    72    69    70   ar
    73    69    74   ar
    74    74    73   ar
    75    73    72   ar
    76    72    71   ar
    77    71    70   ar
    78    70    68    1
    79    71    75    1
    80    72    76    1
    81    73    77    1
    82    74    78    1
    83    58    79    1
