@<TRIPOS>MOLECULE
CPD_35-b
 71 73 0 0 0
SMALL
GASTEIGER

@<TRIPOS>ATOM
      1 C1          3.5926   -8.4099   13.6817 C.3     1  TOS111     -0.1842
      2 ****        4.5061   -6.1469   14.6160 H       1  TOS111      0.1394
      3 C3          6.9262   -4.9572   15.1585 C.3     1  TOS111     -0.1830
      4 C4          8.7617   -9.2805   13.4973 C.3     1  TOS111     -0.2022
      5 ****        8.7084   -6.8299   14.3571 H       1  TOS111      0.1444
      6 ****        6.0015   -4.3921   15.3474 H       1  TOS111      0.0873
      7 ****        7.5550   -4.3702   14.4748 H       1  TOS111      0.0921
      8 ****        6.7592   -9.2863   10.3807 H       2  APM222      0.1248
      9 ****        5.2500  -10.4846    8.6321 H       2  APM222      0.1171
     10 ****        6.1649   -9.0984    8.0291 H       2  APM222      0.1094
     11 ****        2.8366  -10.3695    8.4916 H       2  APM222      0.1342
     12 ****        5.1092   -6.8498    7.7149 H       2  APM222      0.1620
     13 ****        3.0714   -5.6719    6.9810 H       2  APM222      0.1642
     14 ****        0.9018   -6.7247    7.1779 H       2  APM222      0.1357
     15 ****        3.9818  -10.0118   10.9321 H       2  APM222      0.2261
     16 ****       -1.5993   -9.3799    7.0688 H       2  APM222      0.2712
     17 ****       -0.5794   -8.0868    6.4742 H       2  APM222      0.2933
     18 ****        0.8515  -10.8730    9.0870 H       2  APM222      0.2946
     19 ****       -0.7788  -10.9755    8.4544 H       2  APM222      0.2714
     20 ****        7.5663   -6.2400    8.4063 H       3  PIP333      0.0806
     21 ****        7.8351   -7.8177    9.1399 H       3  PIP333      0.1040
     22 ****        9.6786   -6.2785    9.7457 H       3  PIP333      0.1046
     23 ****        8.7481   -6.7697   11.1907 H       3  PIP333      0.1090
     24 ****        8.4170   -4.1229    9.6375 H       3  PIP333      0.1261
     25 ****       10.5739   -4.2999   13.6046 C.3     4  CO244      -0.0826
     26 ****        6.8140   -3.5013   11.4726 H       3  PIP333      0.1034
     27 ****        7.0177   -5.1264   12.1886 H       3  PIP333      0.1134
     28 ****        4.9485   -5.0338   10.8405 H       3  PIP333      0.1300
     29 ****        5.8775   -4.5888    9.3957 H       3  PIP333      0.0749
     30 S           5.7395  -10.4438   12.5784 S.O2    1  TOS111      2.6155
     31 O1          6.8998  -11.1600   12.1001 O.2     1  TOS111     -0.8762
     32 O2          4.7825  -11.1762   13.3854 O.2     1  TOS111     -0.8636
     33 C1          6.1518   -8.8902   13.4085 C.ar    1  TOS111     -0.7006
     34 C2          5.0874   -8.0530   13.7966 C.ar    1  TOS111      0.0496
     35 C3          5.3373   -6.7898   14.3450 C.ar    1  TOS111     -0.1603
     36 C4          6.6400   -6.3396   14.5562 C.ar    1  TOS111     -0.0088
     37 C5          7.6931   -7.1850   14.2088 C.ar    1  TOS111     -0.1653
     38 C6          7.4678   -8.4663   13.6880 C.ar    1  TOS111      0.0317
     39 ****        7.4615   -5.0848   16.1110 H       1  TOS111      0.0959
     40 C           5.4698   -7.5493   10.4394 C.2     2  APM222      0.2764
     41 CA          5.7131   -9.0187   10.1760 C.3     2  APM222      0.0463
     42 CB          5.3521   -9.3908    8.7094 C.3     2  APM222     -0.1244
     43 CG          4.0778   -8.6795    8.2182 C.ar    2  APM222     -0.0568
     44 CD1         2.8404   -9.3296    8.2002 C.ar    2  APM222     -0.0730
     45 CD2         4.1567   -7.3614    7.7600 C.ar    2  APM222     -0.0541
     46 CE1         1.6611   -8.6733    7.8054 C.ar    2  APM222     -0.1427
     47 CE2         3.0048   -6.6905    7.3512 C.ar    2  APM222     -0.1107
     48 CZ          1.7665   -7.3265    7.4226 C.ar    2  APM222     -0.0837
     49 CF          0.3157   -9.3843    7.7857 C.3     2  APM222      0.3433
     50 O           4.4276   -7.3158   11.0299 O.2     2  APM222     -0.3685
     51 N           4.9446   -9.8183   11.1241 N.3     2  APM222     -0.8269
     52 NG1        -0.6812   -8.9163    7.0682 N.3     2  APM222     -0.3298
     53 NG2         0.1223  -10.4803    8.4835 N.3     2  APM222     -0.3269
     54 N1          6.3036   -6.5386   10.0525 N.am    3  PIP333     -0.3411
     55 C2          7.5792   -6.7770    9.3673 C.3     3  PIP333     -0.0160
     56 C3          8.7041   -6.1903   10.2549 C.3     3  PIP333     -0.1765
     57 C4          8.4156   -4.7015   10.5790 C.3     3  PIP333     -0.1097
     58 C5          7.0246   -4.5600   11.2476 C.3     3  PIP333     -0.1803
     59 C6          5.9230   -5.1533   10.3402 C.3     3  PIP333     -0.0104
     60 C           9.4798   -4.1666   11.5067 C.2     4  CO244       0.3041
     61 O          10.1822   -3.2285   11.1644 O.2     4  CO244      -0.3363
     62 O           9.5704   -4.7972   12.6909 O.3     4  CO244      -0.2516
     63 ****        3.3547   -9.3082   13.1077 H       1  TOS111      0.0787
     64 ****        3.0486   -7.5772   13.2106 H       1  TOS111      0.0977
     65 ****        3.1980   -8.5467   14.6994 H       1  TOS111      0.1000
     66 ****        8.6484  -10.3298   13.2245 H       1  TOS111      0.1177
     67 ****        9.3129   -9.2754   14.4503 H       1  TOS111      0.0962
     68 ****        9.3853   -8.7877   12.7357 H       1  TOS111      0.0883
     69 ****       11.2519   -5.1338   13.8377 H       4  CO244       0.0888
     70 ****       10.0636   -4.0076   14.5336 H       4  CO244       0.0858
     71 ****       11.1842   -3.4463   13.2717 H       4  CO244       0.1172
@<TRIPOS>BOND
     1    34     1    1
     2    35     2    1
     3    36     3    1
     4    38     4    1
     5    37     5    1
     6     3     6    1
     7     3     7    1
     8    41     8    1
     9    42     9    1
    10    42    10    1
    11    44    11    1
    12    45    12    1
    13    47    13    1
    14    48    14    1
    15    51    15    1
    16    52    16    1
    17    52    17    1
    18    53    18    1
    19    53    19    1
    20    55    20    1
    21    55    21    1
    22    56    22    1
    23    56    23    1
    24    57    24    1
    25    57    60    1
    26    58    26    1
    27    58    27    1
    28    59    28    1
    29    59    29    1
    30    30    33    1
    31    30    32    2
    32    30    31    2
    33    33    38   ar
    34    33    34   ar
    35    34    35   ar
    36    35    36   ar
    37     3    39    1
    38    36    37   ar
    39    37    38   ar
    40    40    50    2
    41    40    41    1
    42    41    51    1
    43    41    42    1
    44    42    43    1
    45    43    45   ar
    46    43    44   ar
    47    44    46   ar
    48    46    49    1
    49    46    48   ar
    50    48    47   ar
    51    47    45   ar
    52    49    53    1
    53    49    52    1
    54    59    54    1
    55    54    55    1
    56    55    56    1
    57    56    57    1
    58    57    58    1
    59    58    59    1
    60    40    54   am
    61    51    30    1
    62    60    61    2
    63    60    62    1
    64    62    25    1
    65     1    63    1
    66     1    64    1
    67     1    65    1
    68     4    66    1
    69     4    67    1
    70     4    68    1
    71    25    69    1
    72    25    70    1
    73    25    71    1
