@<TRIPOS>MOLECULE
CPD_02-b
 73 75 0 0 0
SMALL
GASTEIGER

@<TRIPOS>ATOM
      1 ****        3.8967   -8.7832   14.0111 H       1  TOS111      0.1401
      2 ****        4.0115   -6.6715   15.2079 H       1  TOS111      0.1423
      3 ****        8.2360   -6.4683   14.3851 H       1  TOS111      0.1365
      4 ****        8.0915   -8.6218   13.2158 H       1  TOS111      0.1443
      5 C5          4.8674   -4.4271   16.1242 C.3     1  TOS111     -0.2061
      6 C6          6.7348   -3.8525   14.5855 C.3     1  TOS111     -0.2043
      7 C7          7.2292   -5.0141   16.7832 C.3     1  TOS111     -0.2025
      8 ****        6.7797   -9.2738   10.4215 H       2  APM222      0.1238
      9 ****        5.2364  -10.4464    8.6719 H       2  APM222      0.1147
     10 ****        6.1681   -9.0608    8.0999 H       2  APM222      0.1123
     11 ****        2.7869  -10.3079    8.5679 H       2  APM222      0.1300
     12 ****        5.1110   -6.8120    7.7513 H       2  APM222      0.1663
     13 ****        3.1042   -5.6862    6.8886 H       2  APM222      0.1663
     14 ****        0.9030   -6.7521    7.0363 H       2  APM222      0.1355
     15 ****        4.0345  -10.0568   11.0449 H       2  APM222      0.2352
     16 ****       -1.6049   -9.4382    7.0272 H       2  APM222      0.2738
     17 ****       -0.5958   -8.1455    6.3961 H       2  APM222      0.2928
     18 ****        0.8065  -10.8000    9.1409 H       2  APM222      0.2938
     19 ****       -0.8102  -10.9432    8.4583 H       2  APM222      0.2743
     20 ****        7.6203   -6.2691    8.4341 H       3  PIP333      0.1004
     21 ****        7.8752   -7.8404    9.2053 H       3  PIP333      0.1053
     22 ****        9.7071   -6.2095    9.7191 H       3  PIP333      0.1111
     23 ****        8.8786   -6.7543   11.2048 H       3  PIP333      0.0935
     24 ****       10.8900   -3.7877   10.9764 C.3     4  SULFONYL44   -0.8115
     25 S1          9.3246   -3.5297   10.1182 S.O2    4  SULFONYL44    2.6033
     26 ****        6.9040   -3.5402   11.4895 H       3  PIP333      0.1360
     27 ****        7.0567   -5.1928   12.1692 H       3  PIP333      0.1023
     28 ****        4.9868   -5.0085   10.8320 H       3  PIP333      0.1353
     29 ****        5.9353   -4.5714    9.3911 H       3  PIP333      0.0884
     30 S           5.7809  -10.3917   12.6477 S.O2    1  TOS111      2.6187
     31 O1          7.0926  -10.9390   12.3210 O.2     1  TOS111     -0.8692
     32 O2          4.8563  -11.2263   13.4083 O.2     1  TOS111     -0.8608
     33 C1          5.9785   -8.8505   13.5239 C.ar    1  TOS111     -0.7251
     34 C2          4.8489   -8.2711   14.0958 C.ar    1  TOS111     -0.0146
     35 C3          4.9275   -7.0482   14.7684 C.ar    1  TOS111     -0.1387
     36 C4          6.1350   -6.3399   14.8753 C.ar    1  TOS111      0.0096
     37 C5          7.2688   -6.9492   14.3115 C.ar    1  TOS111     -0.1542
     38 C6          7.2000   -8.1821   13.6431 C.ar    1  TOS111     -0.0355
     39 C7          6.2378   -4.9435   15.5813 C.3     1  TOS111     -0.0175
     40 C           5.4980   -7.5407   10.5025 C.2     2  APM222      0.2717
     41 CA          5.7275   -9.0190   10.2399 C.3     2  APM222      0.0455
     42 CB          5.3412   -9.3557    8.7626 C.3     2  APM222     -0.1217
     43 CG          4.0658   -8.6404    8.2521 C.ar    2  APM222     -0.0588
     44 CD1         2.8172   -9.2804    8.2318 C.ar    2  APM222     -0.0731
     45 CD2         4.1608   -7.3313    7.7697 C.ar    2  APM222     -0.0538
     46 CE1         1.6440   -8.6498    7.7840 C.ar    2  APM222     -0.1408
     47 CE2         3.0126   -6.6878    7.2962 C.ar    2  APM222     -0.1101
     48 CZ          1.7685   -7.3259    7.3477 C.ar    2  APM222     -0.0795
     49 CF          0.3006   -9.3736    7.7667 C.3     2  APM222      0.3429
     50 O           4.4771   -7.2927   11.1287 O.2     2  APM222     -0.3587
     51 N           5.0056   -9.8444   11.2159 N.3     2  APM222     -0.8366
     52 NG1        -0.6918   -8.9568    7.0158 N.3     2  APM222     -0.3303
     53 NG2         0.0900  -10.4384    8.5018 N.3     2  APM222     -0.3284
     54 N1          6.3363   -6.5361   10.0747 N.am    3  PIP333     -0.3444
     55 C2          7.6251   -6.7918    9.4058 C.3     3  PIP333     -0.0335
     56 C3          8.7597   -6.1756   10.2718 C.3     3  PIP333     -0.0204
     57 N4          8.3706   -4.8065   10.5941 N.3     3  PIP333     -0.8248
     58 C5          7.0819   -4.5934   11.2457 C.3     3  PIP333     -0.0341
     59 C6          5.9612   -5.1450   10.3358 C.3     3  PIP333     -0.0335
     60 O           8.7682   -2.2859   10.6144 O.2     4  SULFONYL44   -0.8809
     61 O           9.5576   -3.6543    8.6925 O.2     4  SULFONYL44   -0.8875
     62 ****       10.7357   -3.7450   12.0629 H       4  SULFONYL44    0.1408
     63 ****       11.5699   -2.9774   10.6797 H       4  SULFONYL44    0.1549
     64 ****       11.3489   -4.7478   10.7107 H       4  SULFONYL44    0.1338
     65 ****        4.9842   -3.4295   16.5797 H       1  TOS111      0.0854
     66 ****        4.4644   -5.0962   16.8961 H       1  TOS111      0.0808
     67 ****        4.1314   -4.3293   15.3139 H       1  TOS111      0.0740
     68 ****        7.7289   -4.0814   14.1784 H       1  TOS111      0.0707
     69 ****        6.8048   -2.8675   15.0685 H       1  TOS111      0.0895
     70 ****        6.0146   -3.7613   13.7613 H       1  TOS111      0.0700
     71 ****        6.8948   -5.7726   17.5054 H       1  TOS111      0.0838
     72 ****        7.2804   -4.0453   17.3028 H       1  TOS111      0.0851
     73 ****        8.2494   -5.2683   16.4630 H       1  TOS111      0.0760
@<TRIPOS>BOND
     1    34     1    1
     2    35     2    1
     3    37     3    1
     4    38     4    1
     5    39     5    1
     6    39     6    1
     7    39     7    1
     8    41     8    1
     9    42     9    1
    10    42    10    1
    11    44    11    1
    12    45    12    1
    13    47    13    1
    14    48    14    1
    15    51    15    1
    16    52    16    1
    17    52    17    1
    18    53    18    1
    19    53    19    1
    20    55    20    1
    21    55    21    1
    22    56    22    1
    23    56    23    1
    24    57    25    1
    25    25    60    2
    26    58    26    1
    27    58    27    1
    28    59    28    1
    29    59    29    1
    30    30    33    1
    31    30    32    2
    32    30    31    2
    33    33    38   ar
    34    33    34   ar
    35    34    35   ar
    36    35    36   ar
    37    36    39    1
    38    36    37   ar
    39    37    38   ar
    40    40    50    2
    41    40    41    1
    42    41    51    1
    43    41    42    1
    44    42    43    1
    45    43    45   ar
    46    43    44   ar
    47    44    46   ar
    48    46    49    1
    49    46    48   ar
    50    48    47   ar
    51    47    45   ar
    52    49    53    1
    53    49    52    1
    54    59    54    1
    55    54    55    1
    56    55    56    1
    57    56    57    1
    58    57    58    1
    59    58    59    1
    60    40    54   am
    61    51    30    1
    62    25    61    2
    63    25    24    1
    64    24    62    1
    65    24    63    1
    66    24    64    1
    67     5    65    1
    68     5    66    1
    69     5    67    1
    70     6    68    1
    71     6    69    1
    72     6    70    1
    73     7    71    1
    74     7    72    1
    75     7    73    1
