@<TRIPOS>MOLECULE
CPD_17-b
 82 85 0 0 0
SMALL
GASTEIGER

@<TRIPOS>ATOM
      1 C1          3.9340   -6.4861   15.5694 C.3     4  UNK444     -0.1117
      2 C2          4.2186   -4.9960   15.8805 C.3     4  UNK444     -0.1812
      3 C3          5.6779   -4.8026   16.3793 C.3     4  UNK444      0.0874
      4 ****        6.7750   -9.3098   10.3975 H       2  APM222      0.1268
      5 ****        5.2412  -10.4896    8.6623 H       2  APM222      0.1146
      6 ****        6.1598   -9.1114    8.0515 H       2  APM222      0.1102
      7 ****        2.7966  -10.3796    8.5155 H       2  APM222      0.1335
      8 ****        5.1088   -6.8543    7.7463 H       2  APM222      0.1646
      9 ****        3.0746   -5.6745    7.0058 H       2  APM222      0.1642
     10 ****        0.8779   -6.7573    7.1779 H       2  APM222      0.1346
     11 ****        3.9786   -9.9462   11.0069 H       2  APM222      0.2273
     12 ****       -1.5838   -9.3729    7.0517 H       2  APM222      0.2726
     13 ****       -0.5345   -8.0711    6.4828 H       2  APM222      0.2952
     14 ****        0.8801  -10.8531    9.0938 H       2  APM222      0.2969
     15 ****       -0.7686  -10.9731    8.4710 H       2  APM222      0.2727
     16 ****        7.5541   -6.2230    8.4330 H       3  PIP333      0.0805
     17 ****        7.8165   -7.8162    9.1371 H       3  PIP333      0.0970
     18 ****        9.6654   -6.3164    9.7767 H       3  PIP333      0.0962
     19 ****        8.7265   -6.8052   11.2163 H       3  PIP333      0.0922
     20 ****        8.4433   -4.1396    9.6900 H       3  PIP333      0.0862
     21 C21         9.5348   -4.1783   11.5700 C.3     3  PIP333     -0.2066
     22 ****        6.8185   -3.4938   11.4720 H       3  PIP333      0.0958
     23 ****        7.0146   -5.0860   12.2553 H       3  PIP333      0.1038
     24 ****        4.9513   -5.0510   10.8935 H       3  PIP333      0.1246
     25 ****        5.8673   -4.6001    9.4445 H       3  PIP333      0.0711
     26 S           5.7064  -10.4679   12.6109 S.3     1  TOS111      2.6361
     27 O1          6.9871  -11.0609   12.2756 O.3     1  TOS111     -0.8724
     28 O2          4.7285  -11.2471   13.3446 O.3     1  TOS111     -0.8705
     29 O4          6.5870   -5.2576   15.3654 O.3     4  UNK444     -0.2174
     30 C5          7.4341   -7.1237   14.1125 C.ar    4  UNK444     -0.1737
     31 C6          7.2390   -8.3334   13.4435 C.ar    4  UNK444     -0.0161
     32 C7          5.9819   -8.9420   13.4693 C.ar    4  UNK444     -0.7607
     33 C8          4.9241   -8.3275   14.1444 C.ar    4  UNK444      0.0199
     34 C9          5.1122   -7.1139   14.8133 C.ar    4  UNK444     -0.1542
     35 C10         6.3715   -6.5008   14.7735 C.ar    4  UNK444      0.1576
     36 C           5.4901   -7.5670   10.5007 C.2     2  APM222      0.2720
     37 CA          5.7282   -9.0339   10.2063 C.3     2  APM222      0.0457
     38 CB          5.3500   -9.3966    8.7393 C.3     2  APM222     -0.1233
     39 CG          4.0749   -8.6857    8.2466 C.ar    2  APM222     -0.0537
     40 CD1         2.8343   -9.3371    8.2240 C.ar    2  APM222     -0.0751
     41 CD2         4.1540   -7.3664    7.7883 C.ar    2  APM222     -0.0553
     42 CE1         1.6661   -8.6744    7.8191 C.ar    2  APM222     -0.1460
     43 CE2         3.0037   -6.6939    7.3733 C.ar    2  APM222     -0.1079
     44 CZ          1.7619   -7.3316    7.4322 C.ar    2  APM222     -0.0859
     45 CF          0.3201   -9.3850    7.7921 C.1     2  APM222      0.3359
     46 O           4.4783   -7.3443   11.1474 O.2     2  APM222     -0.3686
     47 N           4.9620   -9.8358   11.1542 N.3     2  APM222     -0.8305
     48 NG1        -0.6622   -8.9094    7.0659 N.2     2  APM222     -0.3289
     49 NG2         0.1347  -10.4755    8.4939 N.2     2  APM222     -0.3256
     50 N1          6.3028   -6.5482   10.0891 N.am    3  PIP333     -0.3376
     51 C2          7.5680   -6.7781    9.3842 C.3     3  PIP333     -0.0205
     52 C3          8.6928   -6.2147   10.2869 C.3     3  PIP333     -0.1763
     53 C4          8.4267   -4.7224   10.6282 C.3     3  PIP333     -0.1046
     54 C5          7.0294   -4.5605   11.2883 C.3     3  PIP333     -0.1783
     55 C6          5.9242   -5.1648   10.3889 C.3     3  PIP333     -0.0128
     56 ****       10.5246   -4.2781   11.0981 H       3  PIP333      0.0793
     57 ****        9.5403   -4.7393   12.5171 H       3  PIP333      0.0783
     58 ****        9.3605   -3.1145   11.7938 H       3  PIP333      0.0820
     59 C12         8.8139   -6.4757   14.1153 C.3     4  UNK444      0.1531
     60 C11         8.3950   -8.9812   12.6901 C.3     4  UNK444      0.1507
     61 C4          3.5512   -8.9901   14.1486 C.3     4  UNK444      0.1432
     62 ****        3.7698   -7.0605   16.4947 H       4  UNK444      0.0983
     63 ****        3.0142   -6.5626   14.9660 H       4  UNK444      0.0946
     64 ****        4.0840   -4.4224   14.9487 H       4  UNK444      0.0942
     65 ****        3.4961   -4.6163   16.6219 H       4  UNK444      0.1015
     66 C18         5.9889   -3.2887   16.5308 C.3     4  UNK444     -0.2034
     67 C19         5.9412   -5.5436   17.7234 C.3     4  UNK444     -0.2290
     68 ****        5.3318   -2.8251   17.2812 H       4  UNK444      0.0916
     69 ****        5.8408   -2.7769   15.5665 H       4  UNK444      0.0843
     70 ****        7.0371   -3.1407   16.8337 H       4  UNK444      0.0940
     71 ****        5.2429   -5.1849   18.4953 H       4  UNK444      0.0884
     72 ****        6.9681   -5.3503   18.0688 H       4  UNK444      0.0922
     73 ****        5.8262   -6.6331   17.6284 H       4  UNK444      0.0869
     74 H1          3.5943   -9.9200   13.5816 H       4  UNK444      0.0000
     75 H2          2.8232   -8.3197   13.6917 H       4  UNK444      0.0000
     76 H3          3.2541   -9.2039   15.1753 H       4  UNK444      0.0000
     77 H4          8.0565   -9.9118   12.2346 H       4  UNK444      0.0000
     78 H6          9.2084   -9.1918   13.3846 H       4  UNK444      0.0000
     79 H7          8.7474   -8.3033   11.9127 H       4  UNK444      0.0000
     80 H5          9.5100   -7.0996   13.5547 H       4  UNK444      0.0000
     81 H8          8.7537   -5.4914   13.6509 H       4  UNK444      0.0000
     82 H9          9.1646   -6.3721   15.1421 H       4  UNK444      0.0000
@<TRIPOS>BOND
     1     1    63    1
     2     1    62    1
     3     1     2    1
     4     2    64    1
     5     2    65    1
     6     2     3    1
     7     3    29    1
     8    35    29    1
     9    30    35   ar
    10    30    59    1
    11    82    59    1
    12    80    59    1
    13    81    59    1
    14    30    31   ar
    15    32    31   ar
    16    33    32   ar
    17    33    61    1
    18    76    61    1
    19    74    61    1
    20    75    61    1
    21    34    33   ar
    22    34     1    1
    23    35    34   ar
    24    26    32    1
    25    47    26    1
    26    47    11    1
    27    37    47    1
    28    37     4    1
    29    37    38    1
    30    38     6    1
    31    38     5    1
    32    38    39    1
    33    39    40   ar
    34    40    42   ar
    35    42    44   ar
    36    44    43   ar
    37    43     9    1
    38    43    41   ar
    39    41     8    1
    40    39    41   ar
    41    44    10    1
    42    42    45    1
    43    45    48    2
    44    48    12    1
    45    48    13    1
    46    45    49    2
    47    49    14    1
    48    49    15    1
    49    40     7    1
    50    36    37    1
    51    36    46    2
    52    36    50   am
    53    50    51    1
    54    51    52    1
    55    52    19    1
    56    52    18    1
    57    52    53    1
    58    53    21    1
    59    21    57    1
    60    21    58    1
    61    21    56    1
    62    53    20    1
    63    53    54    1
    64    54    23    1
    65    54    22    1
    66    54    55    1
    67    55    50    1
    68    55    25    1
    69    55    24    1
    70    51    16    1
    71    51    17    1
    72    26    28    1
    73    26    27    1
    74    31    60    1
    75    79    60    1
    76    77    60    1
    77    78    60    1
    78     3    66    1
    79    66    68    1
    80    66    69    1
    81    66    70    1
    82     3    67    1
    83    67    72    1
    84    67    73    1
    85    67    71    1
