@<TRIPOS>MOLECULE
CPD_62-b
 69 71 0 0 0
SMALL
GASTEIGER

@<TRIPOS>ATOM
      1 C1          5.2289   -5.7596   15.0921 C.3     3  UNK333     -0.1140
      2 C2          5.8692   -4.3528   15.1479 C.3     3  UNK333     -0.1820
      3 C3          7.3798   -4.4440   15.4982 C.3     3  UNK333      0.0860
      4 ****        6.7690   -9.2221   10.3536 H       2  APM222      0.1175
      5 ****        5.3214  -10.4523    8.6045 H       2  APM222      0.1198
      6 ****        6.1961   -9.0107    8.0561 H       2  APM222      0.1081
      7 ****        2.8747  -10.4141    8.3797 H       2  APM222      0.1358
      8 ****        5.1030   -6.8228    7.6985 H       2  APM222      0.1610
      9 ****        3.0162   -5.6202    7.1448 H       2  APM222      0.1651
     10 ****        0.8461   -6.7246    7.4295 H       2  APM222      0.1358
     11 ****        3.9785   -9.9864   10.9556 H       2  APM222      0.2287
     12 ****       -1.5814   -9.3348    7.1509 H       2  APM222      0.2714
     13 ****       -0.5610   -7.9924    6.6347 H       2  APM222      0.2966
     14 ****        0.9601  -10.9581    8.9919 H       2  APM222      0.2976
     15 ****       -0.7042  -11.0417    8.4119 H       2  APM222      0.2718
     16 N16         6.3410   -6.6260   10.0699 N.am    2  APM222     -0.3890
     17 ****        7.1540   -6.8952    9.5492 H       2  APM222      0.2345
     18 C18         6.1471   -5.1999   10.3293 C.3     2  APM222     -0.0763
     19 ****        7.0163   -4.8039   10.8787 H       2  APM222      0.0888
     20 ****        5.2443   -4.9787   10.9200 H       2  APM222      0.1165
     21 ****        6.0646   -4.6641    9.3700 H       2  APM222      0.0639
     22 S           5.7027  -10.3973   12.6147 S.3     1  TOS111      2.6277
     23 O1          6.7684  -11.3127   12.2563 O.3     1  TOS111     -0.8683
     24 O2          4.6623  -10.8346   13.5256 O.3     1  TOS111     -0.8654
     25 O4          8.0313   -5.2055   14.4672 O.3     3  UNK333     -0.2174
     26 C5          8.2933   -7.3720   13.4456 C.ar    3  UNK333     -0.1740
     27 C6          7.7646   -8.5912   13.0130 C.ar    3  UNK333     -0.0221
     28 C7          6.4152   -8.8847   13.2293 C.ar    3  UNK333     -0.7601
     29 C8          5.6125   -7.9614   13.9021 C.ar    3  UNK333      0.0198
     30 C9          6.1381   -6.7416   14.3441 C.ar    3  UNK333     -0.1556
     31 C10         7.4829   -6.4363   14.0953 C.ar    3  UNK333      0.1565
     32 C           5.4509   -7.5473   10.5060 C.2     2  APM222      0.2820
     33 CA          5.7014   -9.0021   10.1877 C.3     2  APM222      0.0341
     34 CB          5.3815   -9.3576    8.7084 C.3     2  APM222     -0.1236
     35 CG          4.1005   -8.6686    8.2151 C.ar    2  APM222     -0.0568
     36 CD1         2.8772   -9.3498    8.1722 C.ar    2  APM222     -0.0752
     37 CD2         4.1529   -7.3380    7.7874 C.ar    2  APM222     -0.0572
     38 CE1         1.6867   -8.6779    7.8569 C.ar    2  APM222     -0.1444
     39 CE2         2.9784   -6.6552    7.4666 C.ar    2  APM222     -0.1048
     40 CZ          1.7485   -7.3092    7.5710 C.ar    2  APM222     -0.0867
     41 CF          0.3469   -9.3967    7.8198 C.1     2  APM222      0.3368
     42 O           4.4489   -7.2613   11.1446 O.2     2  APM222     -0.3600
     43 N           4.9465   -9.8108   11.1333 N.3     2  APM222     -0.8286
     44 NG1        -0.6630   -8.8711    7.1638 N.2     2  APM222     -0.3289
     45 NG2         0.1938  -10.5403    8.4449 N.2     2  APM222     -0.3247
     46 C12         9.7648   -7.0534   13.2067 C.3     3  UNK333      0.1548
     47 C11         8.6662   -9.5940   12.3021 C.3     3  UNK333      0.1525
     48 C4          4.1451   -8.2910   14.1514 C.3     3  UNK333      0.1515
     49 ****        5.0618   -6.1524   16.1084 H       3  UNK333      0.0996
     50 ****        4.2483   -5.6974   14.5924 H       3  UNK333      0.0993
     51 ****        5.7728   -3.8877   14.1532 H       3  UNK333      0.0922
     52 ****        5.3329   -3.7223   15.8771 H       3  UNK333      0.1025
     53 C18         8.0056   -3.0216   15.4809 C.3     3  UNK333     -0.2018
     54 C19         7.6345   -5.0993   16.8852 C.3     3  UNK333     -0.2305
     55 ****        7.5329   -2.3802   16.2410 H       3  UNK333      0.0928
     56 ****        7.8676   -2.5556   14.4934 H       3  UNK333      0.0837
     57 ****        9.0854   -3.0723   15.6858 H       3  UNK333      0.0942
     58 ****        7.0982   -4.5465   17.6726 H       3  UNK333      0.0893
     59 ****        8.7102   -5.0805   17.1178 H       3  UNK333      0.0925
     60 ****        7.3121   -6.1497   16.9091 H       3  UNK333      0.0869
     61 H1          3.9183   -9.2746   13.7401 H       3  UNK333      0.0000
     62 H2          3.5176   -7.5420   13.6684 H       3  UNK333      0.0000
     63 H3          3.9500   -8.2918   15.2238 H       3  UNK333      0.0000
     64 H4          8.0885  -10.4801   12.0392 H       3  UNK333      0.0000
     65 H6          9.4856   -9.8775   12.9627 H       3  UNK333      0.0000
     66 H7          9.0698   -9.1414   11.3964 H       3  UNK333      0.0000
     67 H5         10.2391   -7.8890   12.6921 H       3  UNK333      0.0000
     68 H8         10.2603   -6.8876   14.1634 H       3  UNK333      0.0000
     69 H9          9.8474   -6.1554   12.5944 H       3  UNK333      0.0000
@<TRIPOS>BOND
     1     1     2    1
     2     2    51    1
     3     2    52    1
     4     2     3    1
     5     3    53    1
     6    53    55    1
     7    53    56    1
     8    53    57    1
     9     3    54    1
    10    54    60    1
    11    54    58    1
    12    54    59    1
    13     3    25    1
    14    31    25    1
    15    31    30   ar
    16    30    29   ar
    17    29    28   ar
    18    28    27   ar
    19    26    27   ar
    20    26    31   ar
    21    26    46    1
    22    67    46    1
    23    68    46    1
    24    69    46    1
    25    27    47    1
    26    65    47    1
    27    66    47    1
    28    64    47    1
    29    22    28    1
    30    22    23    1
    31    43    22    1
    32    43    11    1
    33    33    43    1
    34    32    33    1
    35    32    16   am
    36    16    17    1
    37    16    18    1
    38    18    20    1
    39    18    19    1
    40    18    21    1
    41    32    42    2
    42    33     4    1
    43    33    34    1
    44    34     5    1
    45    34     6    1
    46    34    35    1
    47    35    36   ar
    48    36     7    1
    49    36    38   ar
    50    38    40   ar
    51    40    10    1
    52    40    39   ar
    53    39     9    1
    54    39    37   ar
    55    37     8    1
    56    35    37   ar
    57    38    41    1
    58    41    44    2
    59    44    13    1
    60    44    12    1
    61    41    45    2
    62    45    14    1
    63    45    15    1
    64    22    24    1
    65    29    48    1
    66    62    48    1
    67    61    48    1
    68    63    48    1
    69    30     1    1
    70     1    49    1
    71     1    50    1
