@<TRIPOS>MOLECULE
CPD_47-b
 71 74 0 0 0
SMALL
GASTEIGER

@<TRIPOS>ATOM
      1 C1          3.9030   -6.3636   15.2904 C.ar    4  NAPHTHALENE44   -0.1024
      2 C2          4.0732   -5.1488   15.9596 C.ar    4  NAPHTHALENE44   -0.1300
      3 C3          5.3422   -4.5703   16.0402 C.ar    4  NAPHTHALENE44   -0.0985
      4 C4          6.4378   -5.2076   15.4524 C.ar    4  NAPHTHALENE44   -0.1354
      5 ****        6.7877   -9.3344   10.3663 H       2  APM222      0.1267
      6 ****        5.2596  -10.5196    8.6221 H       2  APM222      0.1169
      7 ****        6.1605   -9.1227    8.0109 H       2  APM222      0.1085
      8 ****        2.7752  -10.4280    8.5259 H       2  APM222      0.1323
      9 ****        5.0669   -6.9131    7.6953 H       2  APM222      0.1692
     10 ****        3.0172   -5.6915    7.0820 H       2  APM222      0.1702
     11 ****        0.8215   -6.7972    7.2668 H       2  APM222      0.1340
     12 ****        3.9710   -9.9242   10.9533 H       2  APM222      0.2290
     13 ****       -1.6024   -9.3819    7.0825 H       2  APM222      0.2717
     14 ****       -0.5427   -8.0699    6.5486 H       2  APM222      0.2963
     15 ****        0.8862  -10.9136    9.0808 H       2  APM222      0.2974
     16 ****       -0.7753  -11.0258    8.4812 H       2  APM222      0.2720
     17 C           7.5876   -6.0503    8.0446 C.2     5  CO255       0.2852
     18 ****        7.7942   -7.7535    9.2118 H       3  PIP333      0.1240
     19 ****        9.6551   -6.2413    9.7839 H       3  PIP333      0.1092
     20 ****        8.7326   -6.7386   11.2281 H       3  PIP333      0.1014
     21 ****        8.3960   -4.0560    9.7264 H       3  PIP333      0.0929
     22 ****        9.2218   -4.2860   11.2902 H       3  PIP333      0.0965
     23 ****        6.8732   -3.4785   11.6032 H       3  PIP333      0.0993
     24 ****        7.1417   -5.0733   12.3502 H       3  PIP333      0.0920
     25 C25         4.5782   -4.9483   11.4072 C.3     3  PIP333     -0.1985
     26 ****        5.7434   -4.5297    9.6898 H       3  PIP333      0.1057
     27 S           5.6756  -10.4234   12.6111 S.O2    1  TOS111      2.6184
     28 O1          6.9628  -11.0220   12.3153 O.2     1  TOS111     -0.8645
     29 O2          4.6804  -11.1902   13.3351 O.2     1  TOS111     -0.8645
     30 C5          7.3644   -7.0741   14.1933 C.ar    4  NAPHTHALENE44   -0.1313
     31 C6          7.1893   -8.2855   13.5185 C.ar    4  NAPHTHALENE44   -0.0626
     32 C7          5.9235   -8.8743   13.4512 C.ar    4  NAPHTHALENE44   -0.7284
     33 C8          4.8310   -8.2230   14.0281 C.ar    4  NAPHTHALENE44    0.0289
     34 C9          4.9989   -7.0060   14.7012 C.ar    4  NAPHTHALENE44   -0.0571
     35 C10         6.2714   -6.4276   14.7834 C.ar    4  NAPHTHALENE44    0.0084
     36 H1          2.9112   -6.8014   15.2338 H       4  NAPHTHALENE44    0.1371
     37 C           5.4721   -7.5919   10.4609 C.2     2  APM222      0.2756
     38 CA          5.7450   -9.0518   10.1572 C.3     2  APM222      0.0379
     39 CB          5.3553   -9.4248    8.6977 C.3     2  APM222     -0.1197
     40 CG          4.0572   -8.7331    8.2333 C.ar    2  APM222     -0.0578
     41 CD1         2.8170   -9.3851    8.2348 C.ar    2  APM222     -0.0736
     42 CD2         4.1144   -7.4127    7.7766 C.ar    2  APM222     -0.0548
     43 CE1         1.6450   -8.7154    7.8524 C.ar    2  APM222     -0.1508
     44 CE2         2.9561   -6.7229    7.4169 C.ar    2  APM222     -0.1007
     45 CZ          1.7188   -7.3652    7.4902 C.ar    2  APM222     -0.0894
     46 CF          0.3015   -9.4243    7.8196 C.3     2  APM222      0.3334
     47 O           4.4088   -7.4736   11.0448 O.2     2  APM222     -0.3647
     48 N           4.9578   -9.8407   11.1001 N.3     2  APM222     -0.8226
     49 NG1        -0.6786   -8.9240    7.1083 N.3     2  APM222     -0.3288
     50 NG2         0.1279  -10.5282    8.5008 N.3     2  APM222     -0.3252
     51 N1          6.2695   -6.5191   10.1443 N.am    3  PIP333     -0.3130
     52 C2          7.5391   -6.7058    9.4110 C.3     3  PIP333      0.0351
     53 C3          8.6830   -6.1507   10.2964 C.3     3  PIP333     -0.1677
     54 C4          8.4128   -4.6669   10.6437 C.3     3  PIP333     -0.1644
     55 C5          7.0618   -4.5440   11.3899 C.3     3  PIP333     -0.1784
     56 C6          5.8840   -5.1567   10.5819 C.3     3  PIP333      0.0392
     57 ****        4.4292   -3.8887   11.6655 H       3  PIP333      0.0822
     58 ****        4.6361   -5.5091   12.3521 H       3  PIP333      0.0961
     59 ****        3.6923   -5.2643   10.8333 H       3  PIP333      0.0835
     60 H2          3.2208   -4.6551   16.4165 H       4  NAPHTHALENE44    0.1416
     61 H3          5.4754   -3.6260   16.5598 H       4  NAPHTHALENE44    0.1426
     62 H4          7.4177   -4.7450   15.5207 H       4  NAPHTHALENE44    0.1412
     63 H5          8.3579   -6.6396   14.2528 H       4  NAPHTHALENE44    0.1419
     64 H6          8.0401   -8.7679   13.0499 H       4  NAPHTHALENE44    0.1473
     65 H8          3.8479   -8.6741   13.9485 H       4  NAPHTHALENE44    0.1432
     66 O           6.7902   -5.1921    7.7031 O.2     5  CO255      -0.3554
     67 O           8.5778   -6.4950    7.2499 O.3     5  CO255      -0.2454
     68 ****        8.6274   -5.9432    5.9136 C.3     5  CO255      -0.0792
     69 ****        9.6034   -5.4520    5.7881 H       5  CO255       0.1007
     70 ****        7.8443   -5.2251    5.6242 H       5  CO255       0.1108
     71 ****        8.5782   -6.7909    5.2142 H       5  CO255       0.0893
@<TRIPOS>BOND
     1    27    32    1
     2    30    31   ar
     3    30    35   ar
     4    30    63    1
     5    35     4   ar
     6    35    34   ar
     7    34     1   ar
     8    38     5    1
     9    39     6    1
    10    39     7    1
    11    41     8    1
    12    42     9    1
    13    44    10    1
    14    45    11    1
    15    48    12    1
    16    49    13    1
    17    49    14    1
    18    50    15    1
    19    50    16    1
    20    17    66    2
    21    52    18    1
    22    53    19    1
    23    53    20    1
    24    54    21    1
    25    54    22    1
    26    55    23    1
    27    55    24    1
    28    56    25    1
    29    56    26    1
    30    34    33   ar
    31    27    29    2
    32    27    28    2
    33    33    32   ar
    34    33    65    1
    35    32    31   ar
    36    31    64    1
    37     1     2   ar
    38     1    36    1
    39    37    47    2
    40    37    38    1
    41    38    48    1
    42    38    39    1
    43    39    40    1
    44    40    42   ar
    45    40    41   ar
    46    41    43   ar
    47    43    46    1
    48    43    45   ar
    49    45    44   ar
    50    44    42   ar
    51    46    50    1
    52    46    49    1
    53    56    51    1
    54    51    52    1
    55    52    53    1
    56    53    54    1
    57    54    55    1
    58    55    56    1
    59    37    51   am
    60    48    27    1
    61    25    57    1
    62    25    58    1
    63    25    59    1
    64     2     3   ar
    65     2    60    1
    66     3     4   ar
    67     3    61    1
    68     4    62    1
    69    17    67    1
    70    52    17    1
    71    67    68    1
    72    68    69    1
    73    68    70    1
    74    68    71    1
