@<TRIPOS>MOLECULE
CPD_29-b
 66 70 0 0 0
SMALL
GASTEIGER

@<TRIPOS>ATOM
      1 C1          3.8887   -6.3616   15.2996 C.ar    4  NAPHTHALENE44   -0.1026
      2 C2          4.0564   -5.1458   15.9681 C.ar    4  NAPHTHALENE44   -0.1450
      3 C3          5.3270   -4.5704   16.0564 C.ar    4  NAPHTHALENE44   -0.1157
      4 C4          6.4273   -5.2189   15.4925 C.ar    4  NAPHTHALENE44   -0.1284
      5 ****        6.5931   -9.5184   10.3683 H       2  APM222      0.1789
      6 ****        5.1414  -10.5292    8.6120 H       2  APM222      0.1057
      7 ****        6.0650   -9.1441    8.0314 H       2  APM222      0.1726
      8 ****        2.7561  -10.3879    8.4389 H       2  APM222      0.1284
      9 ****        5.1014   -6.8573    7.7537 H       2  APM222      0.1912
     10 ****        3.0624   -5.6631    7.0230 H       2  APM222      0.1592
     11 ****        0.8496   -6.7158    7.2587 H       2  APM222      0.1203
     12 ****        3.8437   -9.9930   11.0425 H       2  APM222      0.2101
     13 ****       -1.6542   -9.4005    7.1001 H       2  APM222      0.2629
     14 ****       -0.6352   -8.0881    6.5360 H       2  APM222      0.2875
     15 ****        0.8074  -10.9085    9.0455 H       2  APM222      0.2932
     16 ****       -0.8230  -11.0110    8.4181 H       2  APM222      0.2636
     17 ****        9.4758   -6.1170    8.8537 H       3  TETRAHYDROISOQUINOLINE33    0.1655
     18 C1          6.0898   -5.3174   10.6830 C.3     3  TETRAHYDROISOQUINOLINE33    0.0208
     19 N1          6.4634   -6.6887   10.2724 N.am    3  TETRAHYDROISOQUINOLINE33   -0.2263
     20 C2          7.6849   -6.8977    9.6837 C.2     3  TETRAHYDROISOQUINOLINE33   -0.0026
     21 C3          8.5177   -5.9110    9.3352 C.2     3  TETRAHYDROISOQUINOLINE33   -0.2151
     22 C4          9.0674   -3.4604    9.1710 C.ar    3  TETRAHYDROISOQUINOLINE33   -0.1265
     23 C5          8.7619   -2.1257    9.4402 C.ar    3  TETRAHYDROISOQUINOLINE33   -0.1287
     24 S           5.6363  -10.4365   12.6599 S.O2    1  TOS111      2.6121
     25 O1          6.9192  -11.0109   12.3054 O.2     1  TOS111     -0.8319
     26 O2          4.7017  -11.2240   13.4388 O.2     1  TOS111     -0.8940
     27 C5          7.3640   -7.1170   14.2863 C.ar    4  NAPHTHALENE44   -0.1373
     28 C6          7.1850   -8.3168   13.5885 C.ar    4  NAPHTHALENE44   -0.0274
     29 C7          5.9119   -8.8869   13.4925 C.ar    4  NAPHTHALENE44   -0.7131
     30 C8          4.8181   -8.2247   14.0507 C.ar    4  NAPHTHALENE44    0.0088
     31 C9          4.9880   -7.0112   14.7290 C.ar    4  NAPHTHALENE44   -0.0563
     32 C10         6.2661   -6.4474   14.8346 C.ar    4  NAPHTHALENE44    0.0092
     33 H1          2.8955   -6.7952   15.2321 H       4  NAPHTHALENE44    0.1274
     34 C           5.5180   -7.6419   10.5436 C.2     2  APM222      0.2903
     35 CA          5.5996   -9.1159   10.1989 C.3     2  APM222      0.0323
     36 CB          5.2578   -9.4376    8.7166 C.3     2  APM222     -0.1293
     37 CG          4.0217   -8.6810    8.2224 C.ar    2  APM222     -0.0421
     38 CD1         2.7845   -9.3332    8.1854 C.ar    2  APM222     -0.0854
     39 CD2         4.1386   -7.3575    7.7890 C.ar    2  APM222     -0.0338
     40 CE1         1.6072   -8.6660    7.8182 C.ar    2  APM222     -0.1598
     41 CE2         2.9839   -6.6825    7.3909 C.ar    2  APM222     -0.1171
     42 CZ          1.7348   -7.3105    7.4716 C.ar    2  APM222     -0.0937
     43 CF          0.2676   -9.3969    7.7956 C.3     2  APM222      0.3447
     44 O           4.4795   -7.3323   11.1099 O.2     2  APM222     -0.4000
     45 N           4.8252   -9.8698   11.1756 N.3     2  APM222     -0.8226
     46 NG1        -0.7401   -8.9290    7.1027 N.3     2  APM222     -0.3372
     47 NG2         0.0749  -10.5118    8.4591 N.3     2  APM222     -0.3320
     48 C6          7.5860   -1.8119   10.1284 C.ar    3  TETRAHYDROISOQUINOLINE33   -0.1519
     49 C7          6.7165   -2.8271   10.5440 C.ar    3  TETRAHYDROISOQUINOLINE33   -0.1211
     50 C8          7.0137   -4.1670   10.2668 C.ar    3  TETRAHYDROISOQUINOLINE33   -0.1051
     51 C9          8.1939   -4.4658    9.5922 C.ar    3  TETRAHYDROISOQUINOLINE33   -0.0070
     52 H1          6.0291   -5.2852   11.7837 H       3  TETRAHYDROISOQUINOLINE33    0.1003
     53 H2          5.0946   -5.0622   10.2805 H       3  TETRAHYDROISOQUINOLINE33    0.0826
     54 H8          9.9794   -3.7137    8.6395 H       3  TETRAHYDROISOQUINOLINE33    0.1373
     55 H2          3.2015   -4.6490   16.4164 H       4  NAPHTHALENE44    0.1277
     56 H3          5.4559   -3.6196   16.5660 H       4  NAPHTHALENE44    0.1301
     57 H4          7.4080   -4.7580   15.5659 H       4  NAPHTHALENE44    0.1380
     58 H5          8.3655   -6.7126   14.3982 H       4  NAPHTHALENE44    0.1458
     59 H6          8.0381   -8.7993   13.1248 H       4  NAPHTHALENE44    0.1862
     60 H8          3.8329   -8.6654   13.9496 H       4  NAPHTHALENE44    0.1325
     61 H9          9.4382   -1.3409    9.1157 H       3  TETRAHYDROISOQUINOLINE33    0.1246
     62 H10         7.3513   -0.7735   10.3384 H       3  TETRAHYDROISOQUINOLINE33    0.1218
     63 H11         5.8108   -2.5709   11.0842 H       3  TETRAHYDROISOQUINOLINE33    0.1211
     64 C           8.3006   -8.1957    9.3522 C.2     5  CO255       0.3356
     65 O           8.8221   -8.8636   10.2870 O.co2   5  CO255      -0.5273
     66 O           8.3482   -8.5627    8.1480 O.co2   5  CO255      -0.5521
@<TRIPOS>BOND
     1    24    29    1
     2    27    28   ar
     3    27    32   ar
     4    27    58    1
     5    32     4   ar
     6    32    31   ar
     7    31     1   ar
     8    35     5    1
     9    36     6    1
    10    36     7    1
    11    38     8    1
    12    39     9    1
    13    41    10    1
    14    42    11    1
    15    45    12    1
    16    46    13    1
    17    46    14    1
    18    47    15    1
    19    47    16    1
    20    34    19   am
    21    22    54    1
    22    22    51   ar
    23    22    23   ar
    24    23    61    1
    25    23    48   ar
    26    48    62    1
    27    48    49   ar
    28    49    63    1
    29    49    50   ar
    30    31    30   ar
    31    24    26    2
    32    24    25    2
    33    30    29   ar
    34    30    60    1
    35    29    28   ar
    36    28    59    1
    37     1     2   ar
    38     1    33    1
    39    34    44    2
    40    34    35    1
    41    35    45    1
    42    35    36    1
    43    36    37    1
    44    37    39   ar
    45    37    38   ar
    46    38    40   ar
    47    40    43    1
    48    40    42   ar
    49    42    41   ar
    50    41    39   ar
    51    43    47    1
    52    43    46    1
    53    50    18    1
    54    50    51   ar
    55    51    21    1
    56    21    17    1
    57    21    20    2
    58    20    19    1
    59    45    24    1
    60    19    18    1
    61    18    53    1
    62     2     3   ar
    63     2    55    1
    64     3     4   ar
    65     3    56    1
    66     4    57    1
    67    18    52    1
    68    64    65   ar
    69    64    66   ar
    70    20    64    1
