@<TRIPOS>MOLECULE
CPD_45-b
 59 61 0 0 0
SMALL
GASTEIGER

@<TRIPOS>ATOM
      1 ****        3.8687   -8.6942   14.0663 H       1  TOS111      0.1410
      2 ****        4.0667   -6.5336   15.2425 H       1  TOS111      0.1415
      3 ****        8.2821   -6.4675   14.3964 H       1  TOS111      0.1410
      4 ****        8.0766   -8.6311   13.2164 H       1  TOS111      0.1482
      5 ****        6.3176   -4.9502   15.5437 C.3     1  TOS111     -0.1828
      6 ****        5.3531   -4.5845   15.9276 H       1  TOS111      0.0899
      7 ****        6.6976   -4.2190   14.8145 H       1  TOS111      0.0877
      8 ****        6.7599   -9.2903   10.4289 H       2  APM222      0.1257
      9 ****        5.2292  -10.4568    8.6706 H       2  APM222      0.1138
     10 ****        6.1532   -9.0729    8.0970 H       2  APM222      0.1113
     11 ****        2.7891  -10.3162    8.5662 H       2  APM222      0.1312
     12 ****        5.1072   -6.8190    7.7478 H       2  APM222      0.1647
     13 ****        3.0972   -5.6842    6.8929 H       2  APM222      0.1645
     14 ****        0.9029   -6.7490    7.0416 H       2  APM222      0.1352
     15 ****        4.0299  -10.0652   11.0537 H       2  APM222      0.2306
     16 ****       -1.6051   -9.4348    7.0200 H       2  APM222      0.2740
     17 ****       -0.5850   -8.1442    6.3926 H       2  APM222      0.2926
     18 ****        0.8087  -10.7970    9.1444 H       2  APM222      0.2942
     19 ****       -0.8092  -10.9444    8.4679 H       2  APM222      0.2738
     20 ****        7.5685   -6.2704    8.4362 H       3  PIP333      0.0806
     21 ****        7.8288   -7.8391    9.1874 H       3  PIP333      0.0979
     22 ****        9.6802   -6.3105    9.7771 H       3  PIP333      0.0975
     23 ****        8.7582   -6.7803   11.2310 H       3  PIP333      0.0925
     24 ****        8.4502   -4.1367    9.6625 H       3  PIP333      0.0823
     25 ****        9.2209   -4.3193   11.2639 H       3  PIP333      0.0964
     26 ****        6.8379   -3.5017   11.4790 H       3  PIP333      0.0946
     27 ****        7.0325   -5.1091   12.2299 H       3  PIP333      0.0975
     28 ****        4.9528   -5.0365   10.8595 H       3  PIP333      0.1253
     29 ****        5.8890   -4.5975    9.4223 H       3  PIP333      0.0736
     30 S           5.7523  -10.3471   12.6866 S.O2    1  TOS111      2.6397
     31 O1          7.0619  -10.8851   12.3706 O.2     1  TOS111     -0.8756
     32 O2          4.8230  -11.1682   13.4383 O.2     1  TOS111     -0.8693
     33 C1          5.9528   -8.8041   13.5521 C.ar    1  TOS111     -0.7320
     34 C2          4.8331   -8.2022   14.1300 C.ar    1  TOS111     -0.0062
     35 C3          4.9481   -6.9751   14.7900 C.ar    1  TOS111     -0.1427
     36 C4          6.1842   -6.3238   14.8675 C.ar    1  TOS111     -0.0108
     37 C5          7.3103   -6.9437   14.3130 C.ar    1  TOS111     -0.1549
     38 C6          7.1959   -8.1705   13.6507 C.ar    1  TOS111     -0.0313
     39 ****        7.0246   -5.0140   16.3848 H       1  TOS111      0.0982
     40 C           5.4767   -7.5557   10.5144 C.2     2  APM222      0.2716
     41 CA          5.7101   -9.0256   10.2443 C.3     2  APM222      0.0445
     42 CB          5.3323   -9.3655    8.7691 C.3     2  APM222     -0.1214
     43 CG          4.0642   -8.6477    8.2548 C.ar    2  APM222     -0.0556
     44 CD1         2.8178   -9.2882    8.2338 C.ar    2  APM222     -0.0741
     45 CD2         4.1546   -7.3381    7.7694 C.ar    2  APM222     -0.0538
     46 CE1         1.6465   -8.6520    7.7855 C.ar    2  APM222     -0.1410
     47 CE2         3.0135   -6.6888    7.2986 C.ar    2  APM222     -0.1113
     48 CZ          1.7679   -7.3251    7.3480 C.ar    2  APM222     -0.0809
     49 CF          0.2999   -9.3740    7.7674 C.3     2  APM222      0.3416
     50 O           4.4568   -7.3233   11.1446 O.2     2  APM222     -0.3662
     51 N           4.9896   -9.8360   11.2247 N.3     2  APM222     -0.8359
     52 NG1        -0.6907   -8.9541    7.0145 N.3     2  APM222     -0.3311
     53 NG2         0.0909  -10.4399    8.5039 N.3     2  APM222     -0.3284
     54 N1          6.3029   -6.5490   10.0931 N.am    3  PIP333     -0.3389
     55 C2          7.5767   -6.7961    9.4044 C.3     3  PIP333     -0.0188
     56 C3          8.7080   -6.2105   10.2885 C.3     3  PIP333     -0.1802
     57 C4          8.4320   -4.7164   10.6008 C.3     3  PIP333     -0.1571
     58 C5          7.0414   -4.5650   11.2731 C.3     3  PIP333     -0.1820
     59 C6          5.9321   -5.1587   10.3698 C.3     3  PIP333     -0.0124
@<TRIPOS>BOND
     1    34     1    1
     2    35     2    1
     3    37     3    1
     4    38     4    1
     5    36     5    1
     6     5     6    1
     7     5     7    1
     8    41     8    1
     9    42     9    1
    10    42    10    1
    11    44    11    1
    12    45    12    1
    13    47    13    1
    14    48    14    1
    15    51    15    1
    16    52    16    1
    17    52    17    1
    18    53    18    1
    19    53    19    1
    20    55    20    1
    21    55    21    1
    22    56    22    1
    23    56    23    1
    24    57    24    1
    25    57    25    1
    26    58    26    1
    27    58    27    1
    28    59    28    1
    29    59    29    1
    30    30    33    1
    31    30    32    2
    32    30    31    2
    33    33    38   ar
    34    33    34   ar
    35    34    35   ar
    36    35    36   ar
    37     5    39    1
    38    36    37   ar
    39    37    38   ar
    40    40    50    2
    41    40    41    1
    42    41    51    1
    43    41    42    1
    44    42    43    1
    45    43    45   ar
    46    43    44   ar
    47    44    46   ar
    48    46    49    1
    49    46    48   ar
    50    48    47   ar
    51    47    45   ar
    52    49    53    1
    53    49    52    1
    54    59    54    1
    55    54    55    1
    56    55    56    1
    57    56    57    1
    58    57    58    1
    59    58    59    1
    60    40    54   am
    61    51    30    1
