@<TRIPOS>MOLECULE
CPD_38-b
 62 65 0 0 0
SMALL
GASTEIGER

@<TRIPOS>ATOM
      1 C1          4.5932   -7.8706   13.8584 C.ar    1  TOS111     -0.1204
      2 C2          6.1246   -5.8192   14.9485 C.ar    1  TOS111     -0.1120
      3 ****        9.8636   -7.9255   13.3770 H       1  TOS111      0.1460
      4 ****        8.5434   -9.8085   12.4907 H       1  TOS111      0.1536
      5 ****        3.9693   -6.8174   14.5324 C.ar    1  TOS111     -0.0924
      6 ****        4.7360   -5.7919   15.0870 C.ar    1  TOS111     -0.1281
      7 ****        3.9567   -8.6240   13.4141 H       1  TOS111      0.1382
      8 ****        6.8094   -9.2280   10.3504 H       2  APM222      0.1209
      9 ****        5.2917  -10.4118    8.6314 H       2  APM222      0.1174
     10 ****        6.1438   -8.9972    8.0014 H       2  APM222      0.1109
     11 ****        2.8222  -10.3647    8.6666 H       2  APM222      0.1338
     12 ****        5.0047   -6.7714    7.7673 H       2  APM222      0.1634
     13 ****        2.8968   -5.6322    7.1791 H       2  APM222      0.1645
     14 ****        0.7485   -6.8488    7.3039 H       2  APM222      0.1339
     15 ****        3.9951   -9.7985   11.0097 H       2  APM222      0.2306
     16 ****       -1.5729   -9.5027    7.2322 H       2  APM222      0.2724
     17 ****       -0.5578   -8.1623    6.6718 H       2  APM222      0.2971
     18 ****        1.0061  -10.8917    9.2443 H       2  APM222      0.2983
     19 ****       -0.6636  -11.0898    8.6823 H       2  APM222      0.2731
     20 ****        7.4678   -6.1546    8.3399 H       3  PIP333      0.0776
     21 ****        7.8131   -7.7266    9.0537 H       3  PIP333      0.0950
     22 ****        9.6794   -6.1590    9.4763 H       3  PIP333      0.0950
     23 ****        8.9179   -6.6853   11.0019 H       3  PIP333      0.0946
     24 ****        8.4002   -4.0275    9.5099 H       3  PIP333      0.0815
     25 ****        9.3224   -4.2032   11.0264 H       3  PIP333      0.0941
     26 ****        6.9635   -3.4046   11.4407 H       3  PIP333      0.0950
     27 ****        7.2515   -4.9864   12.2126 H       3  PIP333      0.0979
     28 ****        5.0717   -4.9891   11.0495 H       3  PIP333      0.1276
     29 ****        5.8266   -4.5103    9.5194 H       3  PIP333      0.0716
     30 S           5.7653  -10.4503   12.5138 S.O2    1  TOS111      2.6259
     31 O1          6.7196  -11.4255   12.0234 O.2     1  TOS111     -0.8748
     32 O2          4.7652  -10.8780   13.4729 O.2     1  TOS111     -0.8630
     33 C1          6.6408   -9.0230   13.1479 C.ar    1  TOS111     -0.7177
     34 C2          5.9897   -7.9376   13.7578 C.ar    1  TOS111      0.0623
     35 C3          6.7506   -6.8809   14.2826 C.ar    1  TOS111     -0.0564
     36 C4          8.1428   -6.8775   14.1433 C.ar    1  TOS111     -0.0442
     37 C5          8.7843   -7.9334   13.4946 C.ar    1  TOS111     -0.1698
     38 C6          8.0315   -8.9982   12.9976 C.ar    1  TOS111     -0.0224
     39 ****        6.7094   -5.0049   15.3656 H       1  TOS111      0.1383
     40 C           5.5230   -7.4808   10.4653 C.2     2  APM222      0.2745
     41 CA          5.7613   -8.9466   10.1712 C.3     2  APM222      0.0490
     42 CB          5.3685   -9.3162    8.7135 C.3     2  APM222     -0.1267
     43 CG          4.0535   -8.6396    8.2946 C.ar    2  APM222     -0.0523
     44 CD1         2.8372   -9.3306    8.3404 C.ar    2  APM222     -0.0759
     45 CD2         4.0689   -7.3130    7.8481 C.ar    2  APM222     -0.0550
     46 CE1         1.6450   -8.7047    7.9559 C.ar    2  APM222     -0.1504
     47 CE2         2.8797   -6.6698    7.4985 C.ar    2  APM222     -0.1039
     48 CZ          1.6690   -7.3630    7.5605 C.ar    2  APM222     -0.0865
     49 CF          0.3329   -9.4647    7.9588 C.3     2  APM222      0.3310
     50 O           4.4960   -7.2575   11.0868 O.2     2  APM222     -0.3692
     51 N           4.9857   -9.7254   11.1302 N.3     2  APM222     -0.8350
     52 NG1        -0.6663   -9.0120    7.2453 N.3     2  APM222     -0.3267
     53 NG2         0.2185  -10.5559    8.6708 N.3     2  APM222     -0.3232
     54 N1          6.3460   -6.4620   10.0815 N.am    3  PIP333     -0.3343
     55 C2          7.5669   -6.6873    9.2988 C.3     3  PIP333     -0.0174
     56 C3          8.7616   -6.0949   10.0849 C.3     3  PIP333     -0.1793
     57 C4          8.4823   -4.6117   10.4411 C.3     3  PIP333     -0.1575
     58 C5          7.1627   -4.4711   11.2430 C.3     3  PIP333     -0.1795
     59 C6          5.9877   -5.0865   10.4442 C.3     3  PIP333     -0.0109
     60 ****        2.8877   -6.7946   14.6246 H       1  TOS111      0.1371
     61 ****        4.2552   -4.9782   15.6213 H       1  TOS111      0.1402
     62 ****        8.7391   -6.0579   14.5329 H       1  TOS111      0.1424
@<TRIPOS>BOND
     1    34     1   ar
     2     2    35   ar
     3    37     3    1
     4    38     4    1
     5     1     5   ar
     6     6     2   ar
     7     5     6   ar
     8    41     8    1
     9    42     9    1
    10    42    10    1
    11    44    11    1
    12    45    12    1
    13    47    13    1
    14    48    14    1
    15    51    15    1
    16    52    16    1
    17    52    17    1
    18    53    18    1
    19    53    19    1
    20    55    20    1
    21    55    21    1
    22    56    22    1
    23    56    23    1
    24    57    24    1
    25    57    25    1
    26    58    26    1
    27    58    27    1
    28    59    28    1
    29    59    29    1
    30    30    33    1
    31    30    32    2
    32    30    31    2
    33    33    38   ar
    34    33    34   ar
    35    34    35   ar
    36    35    36   ar
    37     1     7    1
    38    36    37   ar
    39    37    38   ar
    40    40    50    2
    41    40    41    1
    42    41    51    1
    43    41    42    1
    44    42    43    1
    45    43    45   ar
    46    43    44   ar
    47    44    46   ar
    48    46    49    1
    49    46    48   ar
    50    48    47   ar
    51    47    45   ar
    52    49    53    1
    53    49    52    1
    54    59    54    1
    55    54    55    1
    56    55    56    1
    57    56    57    1
    58    57    58    1
    59    58    59    1
    60    40    54   am
    61    51    30    1
    62     2    39    1
    63     5    60    1
    64     6    61    1
    65    36    62    1
