@<TRIPOS>MOLECULE
10_2
 36 38 0 0 0
SMALL
USER_CHARGES
****
From 3DB ct
@<TRIPOS>ATOM
      1 C          26.4180   22.0760   16.4050 C.ar    1  LIG1        0.4767
      2 C          25.4430   21.4850   17.2680 C.ar    1  LIG1       -0.6896
      3 C          26.1690   21.0490   18.3560 C.ar    1  LIG1        0.5243
      4 O          27.4810   21.3400   18.1620 O.2     1  LIG1       -0.1560
      5 N          27.6430   21.9860   16.9550 N.ar    1  LIG1       -0.3394
      6 C          25.8340   20.3800   19.6300 C.3     1  LIG1       -0.4527
      7 H          25.6950   19.3060   19.4710 H       1  LIG1        0.1517
      8 H          24.9130   20.7900   20.0570 H       1  LIG1        0.1415
      9 H          26.6320   20.5140   20.3680 H       1  LIG1        0.1568
     10 C          24.0010   21.3780   17.1590 C.ar    1  LIG1        0.4441
     11 C          23.2950   22.2460   16.3140 C.ar    1  LIG1       -0.3368
     12 H          23.8160   23.0110   15.7410 H       1  LIG1        0.2127
     13 C          21.9060   22.1430   16.1980 C.ar    1  LIG1        0.0656
     14 H          21.3700   22.8230   15.5400 H       1  LIG1        0.1795
     15 C          21.2190   21.1730   16.9340 C.ar    1  LIG1       -0.6123
     16 C          21.9130   20.2960   17.7710 C.ar    1  LIG1       -0.0094
     17 H          21.3880   19.5320   18.3390 H       1  LIG1        0.1963
     18 C          23.3030   20.4020   17.8840 C.ar    1  LIG1       -0.2469
     19 H          23.8320   19.7080   18.5350 H       1  LIG1        0.1702
     20 S          19.4610   21.0320   16.7590 S.O2    1  LIG1        2.4662
     21 O          18.8980   22.3380   16.4640 O.2     1  LIG1       -1.0024
     22 O          18.9390   20.2340   17.8540 O.2     1  LIG1       -1.0022
     23 N          19.3190   20.1170   15.3630 N.3     1  LIG1       -1.2902
     24 H          18.8350   20.6390   14.6280 H       1  LIG1        0.4770
     25 H          18.8560   19.2240   15.5530 H       1  LIG1        0.4766
     26 C          26.2330   22.7060   15.0980 C.ar    1  LIG1       -0.1690
     27 C          26.4970   24.0740   14.9290 C.ar    1  LIG1       -0.0627
     28 H          26.8380   24.6780   15.7690 H       1  LIG1        0.1562
     29 C          26.3170   24.6850   13.6860 C.ar    1  LIG1       -0.1806
     30 H          26.5210   25.7480   13.5680 H       1  LIG1        0.1546
     31 C          25.8770   23.9350   12.5970 C.ar    1  LIG1       -0.0771
     32 H          25.7360   24.4110   11.6290 H       1  LIG1        0.1398
     33 C          25.6190   22.5740   12.7490 C.ar    1  LIG1       -0.1845
     34 H          25.2810   21.9850   11.8980 H       1  LIG1        0.1512
     35 C          25.7990   21.9610   13.9920 C.ar    1  LIG1       -0.0639
     36 H          25.6030   20.8930   14.0800 H       1  LIG1        0.1351
@<TRIPOS>BOND
     1     1     2   ar
     2     2     3   ar
     3     3     4   ar
     4     4     5   ar
     5     5     1   ar
     6     3     6    1
     7     6     7    1
     8     6     8    1
     9     6     9    1
    10     2    10    1
    11    10    11   ar
    12    11    12    1
    13    11    13   ar
    14    13    14    1
    15    13    15   ar
    16    15    16   ar
    17    16    17    1
    18    16    18   ar
    19    18    19    1
    20    18    10   ar
    21    15    20    1
    22    20    21    2
    23    20    22    2
    24    20    23    1
    25    23    24    1
    26    23    25    1
    27     1    26    1
    28    26    27   ar
    29    27    28    1
    30    27    29   ar
    31    29    30    1
    32    29    31   ar
    33    31    32    1
    34    31    33   ar
    35    33    34    1
    36    33    35   ar
    37    35    36    1
    38    35    26   ar
