@<TRIPOS>MOLECULE
11_26
 43 46 0 0 0
SMALL
USER_CHARGES
****
From 3DB ct
@<TRIPOS>ATOM
      1 C          25.4820   21.5040   17.2310 C.ar    1  LIG1       -0.5925
      2 C          26.4380   22.0720   16.4020 C.ar    1  LIG1        0.4650
      3 N          27.7370   22.0460   16.8940 N.ar    1  LIG1       -0.4684
      4 C          27.7850   21.4330   18.0620 C.ar    1  LIG1        0.0085
      5 S          26.2570   20.8910   18.6380 S.2     1  LIG1        0.2315
      6 C          29.0290   21.2410   18.8360 C.ar    1  LIG1        0.4200
      7 C          30.2340   21.7300   18.3140 C.ar    1  LIG1       -0.4566
      8 H          30.2670   22.2490   17.3590 H       1  LIG1        0.2016
      9 C          31.4080   21.5530   19.0290 C.ar    1  LIG1        0.3765
     10 H          32.3520   21.9270   18.6410 H       1  LIG1        0.1152
     11 N          31.4680   20.9230   20.2230 N.ar    1  LIG1       -0.6762
     12 C          30.3010   20.4500   20.7150 C.ar    1  LIG1        0.4450
     13 H          30.3640   19.9420   21.6750 H       1  LIG1        0.0964
     14 C          29.0800   20.5820   20.0700 C.ar    1  LIG1       -0.6010
     15 H          28.1990   20.1600   20.5430 H       1  LIG1        0.2423
     16 C          26.1690   22.6900   15.1090 C.ar    1  LIG1       -0.1995
     17 C          25.6720   21.9450   14.0280 C.ar    1  LIG1        0.0253
     18 H          25.4770   20.8790   14.1270 H       1  LIG1        0.1098
     19 C          25.4280   22.5620   12.7990 C.ar    1  LIG1       -0.4296
     20 H          25.0390   21.9880   11.9620 H       1  LIG1        0.2334
     21 C          25.6900   23.9180   12.6470 C.ar    1  LIG1        0.5846
     22 C          26.1970   24.6710   13.7000 C.ar    1  LIG1       -0.3884
     23 H          26.4010   25.7290   13.5620 H       1  LIG1        0.2248
     24 C          26.4410   24.0550   14.9300 C.ar    1  LIG1       -0.0205
     25 H          26.8400   24.6490   15.7510 H       1  LIG1        0.1773
     26 F          25.4560   24.5080   11.4670 F       1  LIG1       -0.3658
     27 C          24.0250   21.4020   17.1140 C.ar    1  LIG1        0.4269
     28 C          23.3100   20.4310   17.8330 C.ar    1  LIG1       -0.1868
     29 H          23.8290   19.7340   18.4900 H       1  LIG1        0.1710
     30 C          21.9210   20.3310   17.7090 C.ar    1  LIG1       -0.0853
     31 H          21.3880   19.5680   18.2730 H       1  LIG1        0.2008
     32 C          21.2380   21.2100   16.8660 C.ar    1  LIG1       -0.4986
     33 C          21.9340   22.1750   16.1350 C.ar    1  LIG1       -0.0423
     34 H          21.4110   22.8580   15.4690 H       1  LIG1        0.2012
     35 C          23.3230   22.2710   16.2640 C.ar    1  LIG1       -0.2913
     36 H          23.8520   23.0340   15.6940 H       1  LIG1        0.1981
     37 S          19.4740   21.0710   16.6860 S.O2    1  LIG1        2.1991
     38 O          18.9380   22.4110   16.4660 O.2     1  LIG1       -0.9705
     39 O          18.9680   20.2980   17.8160 O.2     1  LIG1       -0.9694
     40 C          19.2760   20.1210   15.2030 C.3     1  LIG1       -0.7559
     41 H          18.2060   19.9920   15.0230 H       1  LIG1        0.2462
     42 H          19.7490   19.1470   15.3380 H       1  LIG1        0.2004
     43 H          19.7300   20.6620   14.3700 H       1  LIG1        0.1976
@<TRIPOS>BOND
     1     1     2   ar
     2     2     3   ar
     3     3     4   ar
     4     4     5   ar
     5     5     1   ar
     6     4     6    1
     7     6     7   ar
     8     7     8    1
     9     7     9   ar
    10     9    10    1
    11     9    11   ar
    12    11    12   ar
    13    12    13    1
    14    12    14   ar
    15    14    15    1
    16    14     6   ar
    17     2    16    1
    18    16    17   ar
    19    17    18    1
    20    17    19   ar
    21    19    20    1
    22    19    21   ar
    23    21    22   ar
    24    22    23    1
    25    22    24   ar
    26    24    25    1
    27    24    16   ar
    28    21    26    1
    29     1    27    1
    30    27    28   ar
    31    28    29    1
    32    28    30   ar
    33    30    31    1
    34    30    32   ar
    35    32    33   ar
    36    33    34    1
    37    33    35   ar
    38    35    36    1
    39    35    27   ar
    40    32    37    1
    41    37    38    2
    42    37    39    2
    43    37    40    1
    44    40    41    1
    45    40    42    1
    46    40    43    1
