@<TRIPOS>MOLECULE
11_8
 37 39 0 0 0
SMALL
USER_CHARGES
****
From 3DB ct
@<TRIPOS>ATOM
      1 C          26.3620   22.0940   16.4100 C.ar    1  LIG1       -0.5244
      2 C          25.4890   21.4960   17.3100 C.ar    1  LIG1        0.3053
      3 N          26.0860   20.9400   18.4360 N.ar    1  LIG1       -0.5296
      4 C          27.3860   21.1430   18.4030 C.ar    1  LIG1        0.2300
      5 S          27.9660   21.9840   17.0270 S.2     1  LIG1        0.1910
      6 C          28.3390   20.6940   19.4560 C.3     1  LIG1       -0.2147
      7 H          29.0770   20.0000   19.0410 H       1  LIG1        0.0946
      8 H          27.8040   20.1770   20.2590 H       1  LIG1        0.1024
      9 H          28.8640   21.5480   19.8950 H       1  LIG1        0.0965
     10 C          24.0430   21.4030   17.1400 C.ar    1  LIG1        0.1682
     11 C          23.3470   22.2770   16.2910 C.ar    1  LIG1       -0.2039
     12 H          23.8720   23.0530   15.7380 H       1  LIG1        0.1388
     13 C          21.9600   22.1730   16.1490 C.ar    1  LIG1       -0.0192
     14 H          21.4390   22.8570   15.4810 H       1  LIG1        0.1894
     15 C          21.2610   21.2020   16.8710 C.ar    1  LIG1       -0.5272
     16 C          21.9390   20.3270   17.7230 C.ar    1  LIG1        0.0010
     17 H          21.4040   19.5650   18.2860 H       1  LIG1        0.1763
     18 C          23.3260   20.4360   17.8600 C.ar    1  LIG1       -0.2484
     19 H          23.8480   19.7540   18.5320 H       1  LIG1        0.2071
     20 S          19.4990   21.0610   16.6740 S.O2    1  LIG1        2.1963
     21 O          18.9660   22.3930   16.4080 O.2     1  LIG1       -0.9743
     22 O          18.9800   20.3220   17.8210 O.2     1  LIG1       -0.9724
     23 C          19.3160   20.0680   15.2160 C.3     1  LIG1       -0.7304
     24 H          18.2480   19.9360   15.0290 H       1  LIG1        0.2385
     25 H          19.7860   19.0980   15.3850 H       1  LIG1        0.1899
     26 H          19.7800   20.5840   14.3740 H       1  LIG1        0.1863
     27 C          26.1400   22.7130   15.1010 C.ar    1  LIG1        0.1847
     28 C          26.3860   24.0810   14.8980 C.ar    1  LIG1        0.0161
     29 H          26.7480   24.7060   15.7130 H       1  LIG1        0.1530
     30 C          26.1590   24.6640   13.6490 C.ar    1  LIG1       -0.4966
     31 H          26.3480   25.7220   13.4930 H       1  LIG1        0.2544
     32 C          25.6860   23.8820   12.6030 C.ar    1  LIG1        0.6327
     33 C          25.4340   22.5270   12.7810 C.ar    1  LIG1       -0.4510
     34 H          25.0640   21.9300   11.9520 H       1  LIG1        0.2480
     35 C          25.6610   21.9420   14.0290 C.ar    1  LIG1       -0.1208
     36 H          25.4630   20.8790   14.1560 H       1  LIG1        0.1803
     37 F          25.4670   24.4420   11.4060 F       1  LIG1       -0.3681
@<TRIPOS>BOND
     1     1     2   ar
     2     2     3   ar
     3     3     4   ar
     4     4     5   ar
     5     5     1   ar
     6     4     6    1
     7     6     7    1
     8     6     8    1
     9     6     9    1
    10     2    10    1
    11    10    11   ar
    12    11    12    1
    13    11    13   ar
    14    13    14    1
    15    13    15   ar
    16    15    16   ar
    17    16    17    1
    18    16    18   ar
    19    18    19    1
    20    18    10   ar
    21    15    20    1
    22    20    21    2
    23    20    22    2
    24    20    23    1
    25    23    24    1
    26    23    25    1
    27    23    26    1
    28     1    27    1
    29    27    28   ar
    30    28    29    1
    31    28    30   ar
    32    30    31    1
    33    30    32   ar
    34    32    33   ar
    35    33    34    1
    36    33    35   ar
    37    35    36    1
    38    35    27   ar
    39    32    37    1
