@<TRIPOS>MOLECULE
12_3a
 43 46 0 0 0
SMALL
USER_CHARGES
****
From 3DB ct
@<TRIPOS>ATOM
      1 C          25.4820   21.5020   17.2320 C.ar    1  LIG1       -0.6709
      2 C          26.4400   22.0690   16.4010 C.ar    1  LIG1        0.5584
      3 N          27.7410   22.0450   16.8890 N.ar    1  LIG1       -0.5644
      4 C          27.7750   21.4180   18.0470 C.ar    1  LIG1       -0.0841
      5 S          26.2540   20.8930   18.6460 S.2     1  LIG1        0.2341
      6 C          28.9810   21.2220   18.8520 C.ar    1  LIG1        0.7073
      7 C          30.1980   21.7350   18.3680 C.ar    1  LIG1       -0.4881
      8 H          30.2280   22.2650   17.4170 H       1  LIG1        0.2624
      9 C          31.3800   21.5790   19.0960 C.ar    1  LIG1        0.0255
     10 H          32.3130   21.9860   18.7100 H       1  LIG1        0.1383
     11 C          31.3640   20.9020   20.3120 C.ar    1  LIG1       -0.2630
     12 H          32.2850   20.7790   20.8800 H       1  LIG1        0.1776
     13 C          30.1680   20.3750   20.7990 C.ar    1  LIG1        0.2055
     14 H          30.1700   19.8390   21.7470 H       1  LIG1        0.0888
     15 C          28.9800   20.5290   20.0740 C.ar    1  LIG1       -0.6908
     16 CL         27.5480   19.8120   20.7320 Cl      1  LIG1        0.1324
     17 C          26.1670   22.6890   15.1090 C.ar    1  LIG1       -0.1502
     18 C          25.6660   21.9460   14.0300 C.ar    1  LIG1       -0.0128
     19 H          25.4710   20.8790   14.1280 H       1  LIG1        0.1170
     20 C          25.4180   22.5640   12.8010 C.ar    1  LIG1       -0.3957
     21 H          25.0270   21.9910   11.9660 H       1  LIG1        0.2288
     22 C          25.6810   23.9200   12.6500 C.ar    1  LIG1        0.5585
     23 C          26.1910   24.6710   13.7020 C.ar    1  LIG1       -0.3563
     24 H          26.3960   25.7290   13.5650 H       1  LIG1        0.2157
     25 C          26.4390   24.0550   14.9310 C.ar    1  LIG1       -0.0831
     26 H          26.8410   24.6480   15.7510 H       1  LIG1        0.1944
     27 F          25.4450   24.5110   11.4710 F       1  LIG1       -0.3644
     28 C          24.0250   21.4010   17.1140 C.ar    1  LIG1        0.5869
     29 C          23.3100   20.4310   17.8340 C.ar    1  LIG1       -0.3085
     30 H          23.8290   19.7350   18.4920 H       1  LIG1        0.2023
     31 C          21.9210   20.3320   17.7100 C.ar    1  LIG1        0.0263
     32 H          21.3860   19.5720   18.2750 H       1  LIG1        0.1906
     33 C          21.2380   21.2120   16.8660 C.ar    1  LIG1       -0.6283
     34 C          21.9360   22.1770   16.1360 C.ar    1  LIG1        0.0772
     35 H          21.4110   22.8600   15.4720 H       1  LIG1        0.1842
     36 C          23.3250   22.2710   16.2640 C.ar    1  LIG1       -0.3824
     37 H          23.8550   23.0330   15.6940 H       1  LIG1        0.2018
     38 S          19.4810   21.0720   16.6790 S.O2    1  LIG1        2.4801
     39 O          18.9500   22.3260   16.1720 O.2     1  LIG1       -1.0032
     40 O          18.9200   20.4650   17.8730 O.2     1  LIG1       -1.0003
     41 N          19.3490   19.9490   15.4430 N.3     1  LIG1       -1.3264
     42 H          18.8900   20.3550   14.6230 H       1  LIG1        0.4895
     43 H          18.8660   19.1050   15.7610 H       1  LIG1        0.4895
@<TRIPOS>BOND
     1     1     2   ar
     2     2     3   ar
     3     3     4   ar
     4     4     5   ar
     5     5     1   ar
     6     4     6    1
     7     6     7   ar
     8     7     8    1
     9     7     9   ar
    10     9    10    1
    11     9    11   ar
    12    11    12    1
    13    11    13   ar
    14    13    14    1
    15    13    15   ar
    16    15     6   ar
    17    15    16    1
    18     2    17    1
    19    17    18   ar
    20    18    19    1
    21    18    20   ar
    22    20    21    1
    23    20    22   ar
    24    22    23   ar
    25    23    24    1
    26    23    25   ar
    27    25    26    1
    28    25    17   ar
    29    22    27    1
    30     1    28    1
    31    28    29   ar
    32    29    30    1
    33    29    31   ar
    34    31    32    1
    35    31    33   ar
    36    33    34   ar
    37    34    35    1
    38    34    36   ar
    39    36    37    1
    40    36    28   ar
    41    33    38    1
    42    38    39    2
    43    38    40    2
    44    38    41    1
    45    41    42    1
    46    41    43    1
