@<TRIPOS>MOLECULE
14_13
 42 45 0 0 0
SMALL
USER_CHARGES
****
From 3DB ct
@<TRIPOS>ATOM
      1 C          26.4390   22.0630   16.4050 C.2     1  LIG1       -0.0178
      2 C          25.5430   21.5290   17.2730 C.2     1  LIG1       -0.1646
      3 C          26.1920   20.9800   18.5320 C.3     1  LIG1       -0.3416
      4 H          26.0050   19.9060   18.6380 H       1  LIG1        0.1606
      5 H          25.8730   21.5200   19.4280 H       1  LIG1        0.1578
      6 C          27.6380   21.2430   18.2520 C.ar    1  LIG1        0.1369
      7 C          27.7690   21.8780   17.0120 C.ar    1  LIG1        0.0210
      8 C          29.0210   22.2420   16.5410 C.ar    1  LIG1       -0.1906
      9 H          29.1420   22.7450   15.5850 H       1  LIG1        0.1807
     10 C          30.1420   21.9510   17.3260 C.ar    1  LIG1       -0.1831
     11 H          31.1350   22.2280   16.9720 H       1  LIG1        0.1648
     12 C          30.0020   21.3080   18.5650 C.ar    1  LIG1       -0.1084
     13 H          30.8870   21.0910   19.1630 H       1  LIG1        0.1540
     14 C          28.7390   20.9490   19.0400 C.ar    1  LIG1       -0.2805
     15 H          28.6280   20.4560   20.0020 H       1  LIG1        0.1966
     16 C          24.0830   21.4340   17.1260 C.ar    1  LIG1        0.3967
     17 C          23.3900   22.2910   16.2580 C.ar    1  LIG1       -0.3263
     18 H          23.9250   23.0410   15.6780 H       1  LIG1        0.1793
     19 C          22.0030   22.1910   16.1080 C.ar    1  LIG1        0.0742
     20 H          21.4880   22.8670   15.4300 H       1  LIG1        0.1780
     21 C          21.2990   21.2270   16.8320 C.ar    1  LIG1       -0.6277
     22 C          21.9740   20.3550   17.6890 C.ar    1  LIG1        0.0632
     23 H          21.4340   19.5970   18.2510 H       1  LIG1        0.1775
     24 C          23.3610   20.4610   17.8330 C.ar    1  LIG1       -0.3393
     25 H          23.8670   19.7810   18.5160 H       1  LIG1        0.1973
     26 S          19.5460   21.0730   16.6180 S.O2    1  LIG1        2.4511
     27 O          18.9680   22.3920   16.4330 O.2     1  LIG1       -0.9975
     28 O          19.0180   20.1740   17.6290 O.2     1  LIG1       -0.9984
     29 N          19.4400   20.2780   15.1480 N.3     1  LIG1       -1.3204
     30 H          18.9580   20.8530   14.4520 H       1  LIG1        0.4880
     31 H          18.9910   19.3650   15.2540 H       1  LIG1        0.4883
     32 C          26.1190   22.6980   15.1190 C.ar    1  LIG1       -0.0568
     33 C          25.5690   21.9370   14.0770 C.ar    1  LIG1       -0.0246
     34 H          25.3660   20.8760   14.2150 H       1  LIG1        0.1470
     35 C          25.2660   22.5340   12.8510 C.ar    1  LIG1       -0.4345
     36 H          24.8370   21.9480   12.0440 H       1  LIG1        0.2372
     37 C          25.5150   23.8890   12.6680 C.ar    1  LIG1        0.5961
     38 C          26.0640   24.6590   13.6860 C.ar    1  LIG1       -0.4292
     39 H          26.2550   25.7160   13.5250 H       1  LIG1        0.2327
     40 C          26.3690   24.0630   14.9120 C.ar    1  LIG1       -0.0315
     41 H          26.8020   24.6710   15.7050 H       1  LIG1        0.1629
     42 F          25.2240   24.4610   11.4920 F       1  LIG1       -0.3690
@<TRIPOS>BOND
     1     1     2    2
     2     2     3    1
     3     3     4    1
     4     3     5    1
     5     3     6    1
     6     6     7   ar
     7     7     1    1
     8     7     8   ar
     9     8     9    1
    10     8    10   ar
    11    10    11    1
    12    10    12   ar
    13    12    13    1
    14    12    14   ar
    15    14    15    1
    16    14     6   ar
    17     2    16    1
    18    16    17   ar
    19    17    18    1
    20    17    19   ar
    21    19    20    1
    22    19    21   ar
    23    21    22   ar
    24    22    23    1
    25    22    24   ar
    26    24    25    1
    27    24    16   ar
    28    21    26    1
    29    26    27    2
    30    26    28    2
    31    26    29    1
    32    29    30    1
    33    29    31    1
    34     1    32    1
    35    32    33   ar
    36    33    34    1
    37    33    35   ar
    38    35    36    1
    39    35    37   ar
    40    37    38   ar
    41    38    39    1
    42    38    40   ar
    43    40    41    1
    44    40    32   ar
    45    37    42    1
