@<TRIPOS>MOLECULE
14_15
 44 47 0 0 0
SMALL
USER_CHARGES
****
From 3DB ct
@<TRIPOS>ATOM
      1 C          26.4720   22.0770   16.3760 C.ar    1  LIG1       -0.0534
      2 C          25.4670   21.5750   17.1940 C.ar    1  LIG1       -0.0361
      3 O          26.0160   21.0790   18.3460 O.2     1  LIG1       -0.2549
      4 C          27.3620   21.2440   18.2660 C.ar    1  LIG1        0.3492
      5 C          27.7040   21.8560   17.0670 C.ar    1  LIG1       -0.1244
      6 C          29.0660   22.1180   16.8190 C.ar    1  LIG1       -0.0963
      7 H          29.3850   22.6030   15.8990 H       1  LIG1        0.1831
      8 C          30.0150   21.7440   17.7820 C.ar    1  LIG1       -0.2454
      9 H          31.0700   21.9410   17.5970 H       1  LIG1        0.1766
     10 C          29.6260   21.1260   18.9720 C.ar    1  LIG1       -0.0283
     11 H          30.3830   20.8460   19.7040 H       1  LIG1        0.1522
     12 C          28.2790   20.8620   19.2420 C.ar    1  LIG1       -0.3804
     13 H          27.9640   20.3860   20.1640 H       1  LIG1        0.2156
     14 C          24.0150   21.4350   17.1040 C.ar    1  LIG1        0.3503
     15 C          23.2580   22.2750   16.2750 C.ar    1  LIG1       -0.2949
     16 H          23.7390   23.0410   15.6680 H       1  LIG1        0.1826
     17 C          21.8670   22.1390   16.1950 C.ar    1  LIG1        0.0657
     18 H          21.3000   22.8010   15.5440 H       1  LIG1        0.1826
     19 C          21.2230   21.1570   16.9510 C.ar    1  LIG1       -0.6348
     20 C          21.9600   20.3030   17.7710 C.ar    1  LIG1        0.0582
     21 H          21.4700   19.5290   18.3580 H       1  LIG1        0.1826
     22 C          23.3500   20.4450   17.8460 C.ar    1  LIG1       -0.2858
     23 H          23.9120   19.7760   18.4970 H       1  LIG1        0.2064
     24 S          19.4660   20.9680   16.8200 S.O2    1  LIG1        2.4774
     25 O          18.8630   22.2530   16.5140 O.2     1  LIG1       -1.0031
     26 O          18.9890   20.1800   17.9430 O.2     1  LIG1       -1.0021
     27 N          19.3160   20.0200   15.4470 N.3     1  LIG1       -1.3069
     28 H          18.8020   20.5140   14.7130 H       1  LIG1        0.4824
     29 H          18.8810   19.1200   15.6660 H       1  LIG1        0.4815
     30 C          26.2570   22.7100   15.0870 C.ar    1  LIG1       -0.1114
     31 C          26.5100   24.0740   14.9250 C.ar    1  LIG1       -0.2827
     32 H          26.8800   24.6780   15.7500 H       1  LIG1        0.2451
     33 C          26.2980   24.6850   13.6890 C.ar    1  LIG1        0.3423
     34 C          25.8290   23.9560   12.5930 C.ar    1  LIG1        0.3006
     35 C          25.5720   22.5920   12.7610 C.ar    1  LIG1       -0.4312
     36 H          25.2020   22.0000   11.9260 H       1  LIG1        0.2343
     37 C          25.7800   21.9710   13.9980 C.ar    1  LIG1        0.0366
     38 H          25.5620   20.9090   14.0970 H       1  LIG1        0.1426
     39 O          25.5780   24.4220   11.3310 O.3     1  LIG1       -0.3745
     40 C          25.8190   25.8050   11.0870 C.3     1  LIG1        0.0293
     41 H          25.5720   26.0050   10.0400 H       1  LIG1        0.0874
     42 H          26.8760   26.0520   11.2310 H       1  LIG1        0.0739
     43 H          25.1700   26.4330   11.7060 H       1  LIG1        0.0744
     44 F          26.5620   25.9970   13.5950 F       1  LIG1       -0.3662
@<TRIPOS>BOND
     1     1     2   ar
     2     2     3   ar
     3     3     4   ar
     4     4     5   ar
     5     5     1   ar
     6     5     6   ar
     7     6     7    1
     8     6     8   ar
     9     8     9    1
    10     8    10   ar
    11    10    11    1
    12    10    12   ar
    13    12    13    1
    14    12     4   ar
    15     2    14    1
    16    14    15   ar
    17    15    16    1
    18    15    17   ar
    19    17    18    1
    20    17    19   ar
    21    19    20   ar
    22    20    21    1
    23    20    22   ar
    24    22    23    1
    25    22    14   ar
    26    19    24    1
    27    24    25    2
    28    24    26    2
    29    24    27    1
    30    27    28    1
    31    27    29    1
    32     1    30    1
    33    30    31   ar
    34    31    32    1
    35    31    33   ar
    36    33    34   ar
    37    34    35   ar
    38    35    36    1
    39    35    37   ar
    40    37    38    1
    41    37    30   ar
    42    34    39    1
    43    39    40    1
    44    40    41    1
    45    40    42    1
    46    40    43    1
    47    33    44    1
