@<TRIPOS>MOLECULE
14_7
 41 44 0 0 0
SMALL
USER_CHARGES
****
From 3DB ct
@<TRIPOS>ATOM
      1 C          26.4700   22.0800   16.3770 C.ar    1  LIG1       -0.2960
      2 C          25.4660   21.5740   17.1930 C.ar    1  LIG1        0.0814
      3 O          26.0160   21.0730   18.3430 O.2     1  LIG1       -0.2505
      4 C          27.3620   21.2410   18.2630 C.ar    1  LIG1        0.3016
      5 C          27.7030   21.8570   17.0660 C.ar    1  LIG1        0.0199
      6 C          29.0640   22.1210   16.8180 C.ar    1  LIG1       -0.1663
      7 H          29.3810   22.6100   15.8990 H       1  LIG1        0.1893
      8 C          30.0140   21.7440   17.7780 C.ar    1  LIG1       -0.2121
      9 H          31.0700   21.9430   17.5930 H       1  LIG1        0.1734
     10 C          29.6270   21.1210   18.9660 C.ar    1  LIG1       -0.0569
     11 H          30.3850   20.8390   19.6970 H       1  LIG1        0.1578
     12 C          28.2800   20.8550   19.2370 C.ar    1  LIG1       -0.3630
     13 H          27.9660   20.3750   20.1570 H       1  LIG1        0.2159
     14 C          24.0140   21.4330   17.1030 C.ar    1  LIG1        0.2123
     15 C          23.2560   22.2720   16.2730 C.ar    1  LIG1       -0.2320
     16 H          23.7380   23.0370   15.6660 H       1  LIG1        0.1728
     17 C          21.8660   22.1360   16.1920 C.ar    1  LIG1       -0.0126
     18 H          21.3020   22.7980   15.5380 H       1  LIG1        0.1842
     19 C          21.2230   21.1560   16.9500 C.ar    1  LIG1       -0.5158
     20 C          21.9590   20.3000   17.7700 C.ar    1  LIG1       -0.0263
     21 H          21.4700   19.5250   18.3570 H       1  LIG1        0.1886
     22 C          23.3490   20.4430   17.8440 C.ar    1  LIG1       -0.2108
     23 H          23.9110   19.7730   18.4950 H       1  LIG1        0.1923
     24 S          19.4580   20.9680   16.8310 S.O2    1  LIG1        2.1878
     25 O          18.8670   22.3010   16.7630 O.2     1  LIG1       -0.9699
     26 O          19.0300   20.0730   17.9010 O.2     1  LIG1       -0.9696
     27 C          19.2250   20.1570   15.2710 C.3     1  LIG1       -0.7269
     28 H          18.1540   20.0070   15.1240 H       1  LIG1        0.2379
     29 H          19.7360   19.1920   15.2920 H       1  LIG1        0.1905
     30 H          19.6240   20.7910   14.4770 H       1  LIG1        0.1888
     31 C          26.2530   22.7190   15.0910 C.ar    1  LIG1        0.1122
     32 C          25.7910   21.9650   14.0030 C.ar    1  LIG1       -0.1210
     33 H          25.5810   20.9020   14.1130 H       1  LIG1        0.1764
     34 C          25.5840   22.5730   12.7630 C.ar    1  LIG1       -0.4013
     35 H          25.2230   21.9930   11.9190 H       1  LIG1        0.2319
     36 C          25.8440   23.9300   12.6130 C.ar    1  LIG1        0.5612
     37 C          26.3080   24.6920   13.6780 C.ar    1  LIG1       -0.3928
     38 H          26.5090   25.7500   13.5410 H       1  LIG1        0.2281
     39 C          26.5160   24.0860   14.9190 C.ar    1  LIG1       -0.0913
     40 H          26.8870   24.6900   15.7460 H       1  LIG1        0.1754
     41 F          25.6450   24.5120   11.4220 F       1  LIG1       -0.3645
@<TRIPOS>BOND
     1     1     2   ar
     2     2     3   ar
     3     3     4   ar
     4     4     5   ar
     5     5     1   ar
     6     5     6   ar
     7     6     7    1
     8     6     8   ar
     9     8     9    1
    10     8    10   ar
    11    10    11    1
    12    10    12   ar
    13    12    13    1
    14    12     4   ar
    15     2    14    1
    16    14    15   ar
    17    15    16    1
    18    15    17   ar
    19    17    18    1
    20    17    19   ar
    21    19    20   ar
    22    20    21    1
    23    20    22   ar
    24    22    23    1
    25    22    14   ar
    26    19    24    1
    27    24    25    2
    28    24    26    2
    29    24    27    1
    30    27    28    1
    31    27    29    1
    32    27    30    1
    33     1    31    1
    34    31    32   ar
    35    32    33    1
    36    32    34   ar
    37    34    35    1
    38    34    36   ar
    39    36    37   ar
    40    37    38    1
    41    37    39   ar
    42    39    40    1
    43    39    31   ar
    44    36    41    1
