@<TRIPOS>MOLECULE
1_28
 44 46 0 0 0
SMALL
USER_CHARGES
****
From 3DB ct
@<TRIPOS>ATOM
      1 N          26.4470   22.0590   16.4180 N.ar    1  LIG1       -0.0592
      2 C          25.5310   21.5430   17.3380 C.ar    1  LIG1       -0.3185
      3 C          26.2530   21.0210   18.3970 C.ar    1  LIG1       -0.1095
      4 H          25.8020   20.5210   19.2480 H       1  LIG1        0.2224
      5 C          27.6390   21.2000   18.1540 C.ar    1  LIG1       -0.3077
      6 C          27.7340   21.8930   16.9450 C.ar    1  LIG1        0.1035
      7 C          28.9620   22.4700   16.3050 C.3     1  LIG1       -0.2438
      8 H          29.6790   22.7950   17.0650 H       1  LIG1        0.1124
      9 H          28.7420   23.3590   15.7080 H       1  LIG1        0.1063
     10 H          29.4490   21.7220   15.6730 H       1  LIG1        0.1046
     11 C          28.7620   20.7630   19.0110 C.2     1  LIG1        0.3872
     12 O          28.5510   20.1510   20.0680 O.2     1  LIG1       -0.4122
     13 C          30.1810   21.1150   18.5540 C.3     1  LIG1        1.3278
     14 F          30.4180   22.4640   18.5200 F       1  LIG1       -0.4376
     15 F          31.1520   20.5960   19.3730 F       1  LIG1       -0.4548
     16 F          30.4790   20.6520   17.2990 F       1  LIG1       -0.4379
     17 C          24.0780   21.4470   17.1560 C.ar    1  LIG1        0.3542
     18 C          23.4060   22.3000   16.2680 C.ar    1  LIG1       -0.2692
     19 H          23.9540   23.0520   15.7030 H       1  LIG1        0.1898
     20 C          22.0230   22.1970   16.0940 C.ar    1  LIG1       -0.0204
     21 H          21.5200   22.8720   15.4050 H       1  LIG1        0.1940
     22 C          21.3080   21.2320   16.8080 C.ar    1  LIG1       -0.4877
     23 C          21.9680   20.3570   17.6750 C.ar    1  LIG1       -0.0802
     24 H          21.4200   19.5930   18.2230 H       1  LIG1        0.1940
     25 C          23.3510   20.4670   17.8460 C.ar    1  LIG1       -0.2335
     26 H          23.8560   19.7850   18.5280 H       1  LIG1        0.1927
     27 S          19.5500   21.0810   16.5810 S.O2    1  LIG1        2.1928
     28 O          19.0230   22.4100   16.2920 O.2     1  LIG1       -0.9697
     29 O          19.0080   20.3520   17.7240 O.2     1  LIG1       -0.9672
     30 C          19.3980   20.0690   15.1330 C.3     1  LIG1       -0.7446
     31 H          18.3350   19.9240   14.9310 H       1  LIG1        0.2435
     32 H          19.8750   19.1050   15.3210 H       1  LIG1        0.1995
     33 H          19.8700   20.5780   14.2910 H       1  LIG1        0.1899
     34 C          26.1270   22.6680   15.1650 C.ar    1  LIG1        0.2119
     35 C          25.5490   21.9040   14.1400 C.ar    1  LIG1       -0.1609
     36 H          25.3080   20.8530   14.2830 H       1  LIG1        0.1939
     37 C          25.2230   22.5030   12.9210 C.ar    1  LIG1       -0.3644
     38 H          24.7670   21.9210   12.1250 H       1  LIG1        0.2405
     39 C          25.4730   23.8570   12.7310 C.ar    1  LIG1        0.5482
     40 C          26.0440   24.6270   13.7380 C.ar    1  LIG1       -0.3118
     41 H          26.2370   25.6830   13.5700 H       1  LIG1        0.2302
     42 C          26.3720   24.0340   14.9590 C.ar    1  LIG1       -0.2115
     43 H          26.8470   24.6470   15.7220 H       1  LIG1        0.2188
     44 F          25.1590   24.4290   11.5610 F       1  LIG1       -0.3557
@<TRIPOS>BOND
     1     1     2   ar
     2     2     3   ar
     3     3     4    1
     4     3     5   ar
     5     5     6   ar
     6     6     1   ar
     7     6     7    1
     8     7     8    1
     9     7     9    1
    10     7    10    1
    11     5    11    1
    12    11    12    2
    13    11    13    1
    14    13    14    1
    15    13    15    1
    16    13    16    1
    17     2    17    1
    18    17    18   ar
    19    18    19    1
    20    18    20   ar
    21    20    21    1
    22    20    22   ar
    23    22    23   ar
    24    23    24    1
    25    23    25   ar
    26    25    26    1
    27    25    17   ar
    28    22    27    1
    29    27    28    2
    30    27    29    2
    31    27    30    1
    32    30    31    1
    33    30    32    1
    34    30    33    1
    35     1    34    1
    36    34    35   ar
    37    35    36    1
    38    35    37   ar
    39    37    38    1
    40    37    39   ar
    41    39    40   ar
    42    40    41    1
    43    40    42   ar
    44    42    43    1
    45    42    34   ar
    46    39    44    1
