@<TRIPOS>MOLECULE
1_29
 44 46 0 0 0
SMALL
USER_CHARGES
****
From 3DB ct
@<TRIPOS>ATOM
      1 N          26.4470   22.0590   16.4180 N.ar    1  LIG1       -0.2217
      2 C          25.5310   21.5430   17.3380 C.ar    1  LIG1       -0.1996
      3 C          26.2530   21.0200   18.3960 C.ar    1  LIG1       -0.1477
      4 H          25.8090   20.5190   19.2490 H       1  LIG1        0.2225
      5 C          27.6380   21.2010   18.1510 C.ar    1  LIG1       -0.5162
      6 C          27.7330   21.8950   16.9460 C.ar    1  LIG1        0.2979
      7 C          28.9620   22.4700   16.3090 C.3     1  LIG1       -0.3437
      8 H          29.6820   22.7880   17.0690 H       1  LIG1        0.1115
      9 H          28.7450   23.3630   15.7160 H       1  LIG1        0.1162
     10 H          29.4470   21.7240   15.6720 H       1  LIG1        0.1224
     11 C          28.7510   20.7640   19.0100 C.2     1  LIG1        0.8745
     12 O          28.5650   20.1520   20.0660 O.2     1  LIG1       -0.5821
     13 C          30.1570   21.1040   18.5760 C.3     1  LIG1       -0.4968
     14 H          30.8720   20.6660   19.2800 H       1  LIG1        0.1232
     15 H          30.2950   22.1880   18.5710 H       1  LIG1        0.1276
     16 H          30.3550   20.6900   17.5840 H       1  LIG1        0.1327
     17 C          24.0780   21.4470   17.1550 C.ar    1  LIG1        0.3222
     18 C          23.4050   22.3000   16.2680 C.ar    1  LIG1       -0.2621
     19 H          23.9530   23.0540   15.7040 H       1  LIG1        0.1887
     20 C          22.0220   22.1960   16.0940 C.ar    1  LIG1       -0.0226
     21 H          21.5190   22.8710   15.4050 H       1  LIG1        0.1927
     22 C          21.3080   21.2310   16.8080 C.ar    1  LIG1       -0.5044
     23 C          21.9680   20.3560   17.6750 C.ar    1  LIG1       -0.0668
     24 H          21.4210   19.5930   18.2240 H       1  LIG1        0.1916
     25 C          23.3510   20.4660   17.8450 C.ar    1  LIG1       -0.2353
     26 H          23.8570   19.7840   18.5270 H       1  LIG1        0.1921
     27 S          19.5500   21.0820   16.5820 S.O2    1  LIG1        2.2019
     28 O          19.0250   22.4110   16.2830 O.2     1  LIG1       -0.9738
     29 O          19.0070   20.3630   17.7300 O.2     1  LIG1       -0.9721
     30 C          19.3980   20.0610   15.1400 C.3     1  LIG1       -0.7303
     31 H          18.3340   19.9180   14.9380 H       1  LIG1        0.2364
     32 H          19.8720   19.0980   15.3350 H       1  LIG1        0.1928
     33 H          19.8720   20.5650   14.2960 H       1  LIG1        0.1869
     34 C          26.1270   22.6690   15.1650 C.ar    1  LIG1        0.2266
     35 C          25.5490   21.9040   14.1400 C.ar    1  LIG1       -0.1549
     36 H          25.3100   20.8520   14.2830 H       1  LIG1        0.1925
     37 C          25.2230   22.5030   12.9210 C.ar    1  LIG1       -0.3654
     38 H          24.7670   21.9190   12.1260 H       1  LIG1        0.2372
     39 C          25.4730   23.8560   12.7310 C.ar    1  LIG1        0.5461
     40 C          26.0440   24.6270   13.7370 C.ar    1  LIG1       -0.3358
     41 H          26.2380   25.6820   13.5680 H       1  LIG1        0.2319
     42 C          26.3720   24.0350   14.9590 C.ar    1  LIG1       -0.1820
     43 H          26.8480   24.6480   15.7210 H       1  LIG1        0.2035
     44 F          25.1590   24.4270   11.5610 F       1  LIG1       -0.3585
@<TRIPOS>BOND
     1     1     2   ar
     2     2     3   ar
     3     3     4    1
     4     3     5   ar
     5     5     6   ar
     6     6     1   ar
     7     6     7    1
     8     7     8    1
     9     7     9    1
    10     7    10    1
    11     5    11    1
    12    11    12    2
    13    11    13    1
    14    13    14    1
    15    13    15    1
    16    13    16    1
    17     2    17    1
    18    17    18   ar
    19    18    19    1
    20    18    20   ar
    21    20    21    1
    22    20    22   ar
    23    22    23   ar
    24    23    24    1
    25    23    25   ar
    26    25    26    1
    27    25    17   ar
    28    22    27    1
    29    27    28    2
    30    27    29    2
    31    27    30    1
    32    30    31    1
    33    30    32    1
    34    30    33    1
    35     1    34    1
    36    34    35   ar
    37    35    36    1
    38    35    37   ar
    39    37    38    1
    40    37    39   ar
    41    39    40   ar
    42    40    41    1
    43    40    42   ar
    44    42    43    1
    45    42    34   ar
    46    39    44    1
