@<TRIPOS>MOLECULE
3_100
 39 41 0 0 0
SMALL
USER_CHARGES
****
From 3DB ct
@<TRIPOS>ATOM
      1 C          26.4090   22.1300   16.4600 C.ar    1  LIG1        0.2098
      2 N          25.4700   21.4610   17.2570 N.ar    1  LIG1       -0.2329
      3 C          26.1990   20.8870   18.2820 C.ar    1  LIG1       -0.3850
      4 H          25.7420   20.2840   19.0540 H       1  LIG1        0.3269
      5 CA         27.4950   21.3290   18.1520 C.ar    1  LIG1        0.3379
      6 N          27.6070   22.1110   17.0300 N.ar    1  LIG1       -0.6289
      7 C          28.6630   21.0610   19.0380 C.3     1  LIG1        0.1370
      8 H1         29.5910   21.0730   18.4560 H       1  LIG1        0.0685
      9 H2         28.5630   20.0780   19.5100 H       1  LIG1        0.0364
     10 O          28.7690   22.0470   20.0700 O.3     1  LIG1       -0.6987
     11 H          29.5640   21.7870   20.5790 H       1  LIG1        0.4393
     12 C          24.0480   21.3760   17.1210 C.ar    1  LIG1        0.4765
     13 C          23.3430   22.2600   16.2910 C.ar    1  LIG1       -0.4170
     14 H          23.8370   23.0610   15.7480 H       1  LIG1        0.2211
     15 C          21.9510   22.1710   16.1780 C.ar    1  LIG1        0.0733
     16 H          21.4240   22.8680   15.5290 H       1  LIG1        0.1850
     17 C          21.2550   21.2080   16.9090 C.ar    1  LIG1       -0.5720
     18 C          21.9400   20.3260   17.7450 C.ar    1  LIG1        0.0360
     19 H          21.4070   19.5660   18.3130 H       1  LIG1        0.1920
     20 C          23.3320   20.4170   17.8580 C.ar    1  LIG1       -0.3431
     21 H          23.8320   19.6990   18.5050 H       1  LIG1        0.2096
     22 S          19.4880   21.0840   16.7470 S.O2    1  LIG1        2.1896
     23 O          18.9600   22.4290   16.5370 O.2     1  LIG1       -0.9655
     24 O          18.9880   20.3110   17.8790 O.2     1  LIG1       -0.9651
     25 C          19.2670   20.1420   15.2610 C.3     1  LIG1       -0.7306
     26 H          18.1950   20.0230   15.0920 H       1  LIG1        0.2419
     27 H          19.7340   19.1630   15.3880 H       1  LIG1        0.1943
     28 H          19.7170   20.6820   14.4270 H       1  LIG1        0.1910
     29 C          26.1820   22.7070   15.1300 C.ar    1  LIG1        0.3797
     30 C          26.4420   24.0670   14.9080 C.ar    1  LIG1       -0.4166
     31 H          26.7930   24.6980   15.7240 H       1  LIG1        0.2392
     32 C          26.2500   24.6310   13.6430 C.ar    1  LIG1        0.3039
     33 H          26.4500   25.6890   13.4920 H       1  LIG1        0.0707
     34 C          25.8110   23.8330   12.5890 C.ar    1  LIG1       -0.6696
     35 C          25.5670   22.4760   12.7880 C.ar    1  LIG1        0.2632
     36 H          25.2320   21.8470   11.9670 H       1  LIG1        0.0782
     37 C          25.7590   21.9130   14.0540 C.ar    1  LIG1       -0.3846
     38 H          25.5770   20.8480   14.1890 H       1  LIG1        0.1774
     39 CL         25.5750   24.5260   11.0310 Cl      1  LIG1        0.1311
@<TRIPOS>BOND
     1     1     2   ar
     2     2     3   ar
     3     3     4    1
     4     3     5   ar
     5     5     6   ar
     6     6     1   ar
     7     5     7    1
     8     7     8    1
     9     7     9    1
    10     7    10    1
    11    10    11    1
    12     2    12    1
    13    12    13   ar
    14    13    14    1
    15    13    15   ar
    16    15    16    1
    17    15    17   ar
    18    17    18   ar
    19    18    19    1
    20    18    20   ar
    21    20    21    1
    22    20    12   ar
    23    17    22    1
    24    22    23    2
    25    22    24    2
    26    22    25    1
    27    25    26    1
    28    25    27    1
    29    25    28    1
    30     1    29    1
    31    29    30   ar
    32    30    31    1
    33    30    32   ar
    34    32    33    1
    35    32    34   ar
    36    34    35   ar
    37    35    36    1
    38    35    37   ar
    39    37    38    1
    40    37    29   ar
    41    34    39    1
