@<TRIPOS>MOLECULE
3_10
 38 40 0 0 0
SMALL
USER_CHARGES
****
From 3DB ct
@<TRIPOS>ATOM
      1 C          26.4090   22.1300   16.4600 C.ar    1  LIG1        0.3641
      2 N          25.4700   21.4600   17.2560 N.ar    1  LIG1       -0.1510
      3 C          26.1980   20.8860   18.2820 C.ar    1  LIG1       -0.2260
      4 H          25.7390   20.2800   19.0510 H       1  LIG1        0.2896
      5 C          27.5010   21.3250   18.1630 C.ar    1  LIG1       -0.2401
      6 N          27.6060   22.1140   17.0310 N.ar    1  LIG1       -0.4690
      7 C          28.6680   21.0440   19.0640 C.3     1  LIG1        1.4955
      8 F          28.3510   20.2090   20.0970 F       1  LIG1       -0.4752
      9 F          29.1700   22.1800   19.6300 F       1  LIG1       -0.4373
     10 F          29.7050   20.4540   18.4000 F       1  LIG1       -0.4406
     11 C          24.0490   21.3750   17.1200 C.ar    1  LIG1        0.3568
     12 C          23.3440   22.2590   16.2900 C.ar    1  LIG1       -0.3708
     13 H          23.8370   23.0590   15.7450 H       1  LIG1        0.2260
     14 C          21.9510   22.1720   16.1770 C.ar    1  LIG1        0.0638
     15 H          21.4250   22.8690   15.5280 H       1  LIG1        0.1866
     16 C          21.2550   21.2090   16.9090 C.ar    1  LIG1       -0.5427
     17 C          21.9400   20.3260   17.7440 C.ar    1  LIG1        0.0127
     18 H          21.4070   19.5660   18.3120 H       1  LIG1        0.1946
     19 C          23.3320   20.4160   17.8560 C.ar    1  LIG1       -0.2948
     20 H          23.8310   19.6970   18.5030 H       1  LIG1        0.2059
     21 S          19.4880   21.0850   16.7480 S.O2    1  LIG1        2.1842
     22 O          18.9600   22.4310   16.5440 O.2     1  LIG1       -0.9633
     23 O          18.9890   20.3080   17.8780 O.2     1  LIG1       -0.9606
     24 C          19.2650   20.1480   15.2600 C.3     1  LIG1       -0.7228
     25 H          18.1930   20.0290   15.0920 H       1  LIG1        0.2421
     26 H          19.7330   19.1690   15.3830 H       1  LIG1        0.1933
     27 H          19.7140   20.6910   14.4270 H       1  LIG1        0.1897
     28 C          26.1820   22.7070   15.1300 C.ar    1  LIG1       -0.0210
     29 C          26.4430   24.0670   14.9080 C.ar    1  LIG1       -0.1623
     30 H          26.7940   24.6980   15.7240 H       1  LIG1        0.1911
     31 C          26.2510   24.6290   13.6440 C.ar    1  LIG1       -0.1198
     32 H          26.4480   25.6880   13.4850 H       1  LIG1        0.1497
     33 C          25.8100   23.8350   12.5870 C.ar    1  LIG1       -0.1011
     34 H          25.6610   24.2730   11.6020 H       1  LIG1        0.1497
     35 C          25.5680   22.4770   12.7900 C.ar    1  LIG1       -0.2011
     36 H          25.2320   21.8550   11.9620 H       1  LIG1        0.1639
     37 C          25.7590   21.9130   14.0540 C.ar    1  LIG1       -0.0849
     38 H          25.5770   20.8480   14.1880 H       1  LIG1        0.1254
@<TRIPOS>BOND
     1     1     2   ar
     2     2     3   ar
     3     3     4    1
     4     3     5   ar
     5     5     6   ar
     6     6     1   ar
     7     5     7    1
     8     7     8    1
     9     7     9    1
    10     7    10    1
    11     2    11    1
    12    11    12   ar
    13    12    13    1
    14    12    14   ar
    15    14    15    1
    16    14    16   ar
    17    16    17   ar
    18    17    18    1
    19    17    19   ar
    20    19    20    1
    21    19    11   ar
    22    16    21    1
    23    21    22    2
    24    21    23    2
    25    21    24    1
    26    24    25    1
    27    24    26    1
    28    24    27    1
    29     1    28    1
    30    28    29   ar
    31    29    30    1
    32    29    31   ar
    33    31    32    1
    34    31    33   ar
    35    33    34    1
    36    33    35   ar
    37    35    36    1
    38    35    37   ar
    39    37    38    1
    40    37    28   ar
