@<TRIPOS>MOLECULE
3_14
 46 48 0 0 0
SMALL
USER_CHARGES
****
From 3DB ct
@<TRIPOS>ATOM
      1 C          26.4070   22.1300   16.4620 C.ar    1  LIG1        0.4202
      2 N          25.4690   21.4580   17.2560 N.ar    1  LIG1       -0.1893
      3 C          26.1970   20.8810   18.2810 C.ar    1  LIG1       -0.2300
      4 H          25.7380   20.2730   19.0480 H       1  LIG1        0.2909
      5 C          27.5000   21.3200   18.1620 C.ar    1  LIG1       -0.2561
      6 N          27.6050   22.1140   17.0330 N.ar    1  LIG1       -0.4817
      7 C          28.6670   21.0350   19.0610 C.3     1  LIG1        1.5242
      8 F          28.3600   20.1670   20.0700 F       1  LIG1       -0.4831
      9 F          29.1450   22.1650   19.6620 F       1  LIG1       -0.4437
     10 F          29.7180   20.4830   18.3890 F       1  LIG1       -0.4482
     11 C          24.0480   21.3730   17.1200 C.ar    1  LIG1        0.3918
     12 C          23.3430   22.2580   16.2910 C.ar    1  LIG1       -0.3720
     13 H          23.8370   23.0580   15.7460 H       1  LIG1        0.2267
     14 C          21.9510   22.1710   16.1790 C.ar    1  LIG1        0.0570
     15 H          21.4240   22.8680   15.5300 H       1  LIG1        0.1858
     16 C          21.2540   21.2080   16.9100 C.ar    1  LIG1       -0.5500
     17 C          21.9390   20.3250   17.7450 C.ar    1  LIG1        0.0187
     18 H          21.4060   19.5650   18.3130 H       1  LIG1        0.1953
     19 C          23.3310   20.4150   17.8570 C.ar    1  LIG1       -0.3115
     20 H          23.8300   19.6960   18.5040 H       1  LIG1        0.2085
     21 S          19.4870   21.0850   16.7500 S.O2    1  LIG1        2.1941
     22 O          18.9590   22.4320   16.5500 O.2     1  LIG1       -0.9670
     23 O          18.9890   20.3050   17.8790 O.2     1  LIG1       -0.9640
     24 C          19.2640   20.1520   15.2600 C.3     1  LIG1       -0.7298
     25 H          18.1910   20.0350   15.0910 H       1  LIG1        0.2412
     26 H          19.7300   19.1720   15.3800 H       1  LIG1        0.1936
     27 H          19.7130   20.6970   14.4280 H       1  LIG1        0.1921
     28 C          26.1820   22.7090   15.1330 C.ar    1  LIG1       -0.1077
     29 C          26.4400   24.0610   14.9060 C.ar    1  LIG1       -0.1279
     30 H          26.7880   24.6980   15.7180 H       1  LIG1        0.1990
     31 C          26.2500   24.6230   13.6330 C.ar    1  LIG1       -0.2738
     32 H          26.4630   25.6860   13.5320 H       1  LIG1        0.1606
     33 C          25.8120   23.8630   12.5340 C.ar    1  LIG1        0.3381
     34 C          25.5810   22.5000   12.7850 C.ar    1  LIG1       -0.3689
     35 H          25.2490   21.8310   11.9930 H       1  LIG1        0.1751
     36 C          25.7670   21.9270   14.0540 C.ar    1  LIG1       -0.0339
     37 H          25.5840   20.8610   14.1790 H       1  LIG1        0.1307
     38 N          25.6250   24.4240   11.2770 N.pl3   1  LIG1       -0.3986
     39 C          25.1610   23.6190   10.1460 C.3     1  LIG1        0.0179
     40 H          25.0650   24.2150    9.2320 H       1  LIG1        0.0821
     41 H          24.1740   23.1920   10.3530 H       1  LIG1        0.0405
     42 H          25.8690   22.8120    9.9280 H       1  LIG1        0.0533
     43 C          25.8700   25.8480   11.0340 C.3     1  LIG1        0.0374
     44 H          25.6760   26.1240    9.9920 H       1  LIG1        0.0759
     45 H          26.9150   26.1020   11.2420 H       1  LIG1        0.0457
     46 H          25.2130   26.4650   11.6560 H       1  LIG1        0.0410
@<TRIPOS>BOND
     1     1     2   ar
     2     2     3   ar
     3     3     4    1
     4     3     5   ar
     5     5     6   ar
     6     6     1   ar
     7     5     7    1
     8     7     8    1
     9     7     9    1
    10     7    10    1
    11     2    11    1
    12    11    12   ar
    13    12    13    1
    14    12    14   ar
    15    14    15    1
    16    14    16   ar
    17    16    17   ar
    18    17    18    1
    19    17    19   ar
    20    19    20    1
    21    19    11   ar
    22    16    21    1
    23    21    22    2
    24    21    23    2
    25    21    24    1
    26    24    25    1
    27    24    26    1
    28    24    27    1
    29     1    28    1
    30    28    29   ar
    31    29    30    1
    32    29    31   ar
    33    31    32    1
    34    31    33   ar
    35    33    34   ar
    36    34    35    1
    37    34    36   ar
    38    36    37    1
    39    36    28   ar
    40    33    38    1
    41    38    39    1
    42    39    40    1
    43    39    41    1
    44    39    42    1
    45    38    43    1
    46    43    44    1
    47    43    45    1
    48    43    46    1
