@<TRIPOS>MOLECULE
3_15
 42 44 0 0 0
SMALL
USER_CHARGES
****
From 3DB ct
@<TRIPOS>ATOM
      1 C          26.4080   22.1290   16.4600 C.ar    1  LIG1        0.3783
      2 N          25.4700   21.4590   17.2560 N.ar    1  LIG1       -0.1805
      3 C          26.1980   20.8850   18.2830 C.ar    1  LIG1       -0.2080
      4 H          25.7400   20.2790   19.0510 H       1  LIG1        0.2898
      5 C          27.5010   21.3250   18.1630 C.ar    1  LIG1       -0.2669
      6 N          27.6060   22.1140   17.0320 N.ar    1  LIG1       -0.4614
      7 C          28.6680   21.0450   19.0640 C.3     1  LIG1        1.5207
      8 F          28.3440   20.2350   20.1140 F       1  LIG1       -0.4797
      9 F          29.1880   22.1850   19.6080 F       1  LIG1       -0.4411
     10 F          29.6930   20.4290   18.4080 F       1  LIG1       -0.4475
     11 C          24.0490   21.3740   17.1210 C.ar    1  LIG1        0.3627
     12 C          23.3450   22.2590   16.2910 C.ar    1  LIG1       -0.3541
     13 H          23.8380   23.0600   15.7470 H       1  LIG1        0.2220
     14 C          21.9520   22.1720   16.1770 C.ar    1  LIG1        0.0487
     15 H          21.4260   22.8690   15.5290 H       1  LIG1        0.1887
     16 C          21.2550   21.2090   16.9090 C.ar    1  LIG1       -0.5378
     17 C          21.9400   20.3260   17.7440 C.ar    1  LIG1        0.0104
     18 H          21.4070   19.5660   18.3120 H       1  LIG1        0.1965
     19 C          23.3320   20.4160   17.8570 C.ar    1  LIG1       -0.2965
     20 H          23.8310   19.6970   18.5040 H       1  LIG1        0.2070
     21 S          19.4890   21.0860   16.7470 S.O2    1  LIG1        2.1897
     22 O          18.9610   22.4310   16.5430 O.2     1  LIG1       -0.9647
     23 O          18.9890   20.3080   17.8770 O.2     1  LIG1       -0.9632
     24 C          19.2660   20.1480   15.2590 C.3     1  LIG1       -0.7177
     25 H          18.1940   20.0290   15.0910 H       1  LIG1        0.2402
     26 H          19.7350   19.1700   15.3810 H       1  LIG1        0.1912
     27 H          19.7140   20.6930   14.4260 H       1  LIG1        0.1898
     28 C          26.1830   22.7060   15.1300 C.ar    1  LIG1        0.0698
     29 C          26.4400   24.0640   14.9080 C.ar    1  LIG1       -0.3534
     30 H          26.7840   24.6970   15.7250 H       1  LIG1        0.2320
     31 C          26.2500   24.6300   13.6420 C.ar    1  LIG1        0.0713
     32 H          26.4340   25.6940   13.5150 H       1  LIG1        0.1251
     33 C          25.8200   23.8400   12.5720 C.ar    1  LIG1       -0.1106
     34 C          25.5680   22.4820   12.7890 C.ar    1  LIG1       -0.1911
     35 H          25.2290   21.8430   11.9750 H       1  LIG1        0.2031
     36 C          25.7590   21.9160   14.0540 C.ar    1  LIG1       -0.1274
     37 H          25.5730   20.8510   14.1870 H       1  LIG1        0.1359
     38 S          25.5380   24.5150   10.9430 S.3     1  LIG1       -0.0510
     39 C          26.0060   26.2490   11.2170 C.3     1  LIG1       -0.2237
     40 H          26.0270   26.7660   10.2530 H       1  LIG1        0.1449
     41 H          27.0010   26.3130   11.6660 H       1  LIG1        0.0814
     42 H          25.2790   26.7530   11.8580 H       1  LIG1        0.0772
@<TRIPOS>BOND
     1     1     2   ar
     2     2     3   ar
     3     3     4    1
     4     3     5   ar
     5     5     6   ar
     6     6     1   ar
     7     5     7    1
     8     7     8    1
     9     7     9    1
    10     7    10    1
    11     2    11    1
    12    11    12   ar
    13    12    13    1
    14    12    14   ar
    15    14    15    1
    16    14    16   ar
    17    16    17   ar
    18    17    18    1
    19    17    19   ar
    20    19    20    1
    21    19    11   ar
    22    16    21    1
    23    21    22    2
    24    21    23    2
    25    21    24    1
    26    24    25    1
    27    24    26    1
    28    24    27    1
    29     1    28    1
    30    28    29   ar
    31    29    30    1
    32    29    31   ar
    33    31    32    1
    34    31    33   ar
    35    33    34   ar
    36    34    35    1
    37    34    36   ar
    38    36    37    1
    39    36    28   ar
    40    33    38    1
    41    38    39    1
    42    39    40    1
    43    39    41    1
    44    39    42    1
