@<TRIPOS>MOLECULE
3_54
 42 44 0 0 0
SMALL
USER_CHARGES
****
From 3DB ct
@<TRIPOS>ATOM
      1 C          26.4070   22.1270   16.4580 C.ar    1  LIG1        0.4049
      2 N          25.4700   21.4610   17.2580 N.ar    1  LIG1       -0.1932
      3 C          26.2000   20.8890   18.2840 C.ar    1  LIG1       -0.1943
      4 H          25.7420   20.2860   19.0560 H       1  LIG1        0.2888
      5 C          27.5030   21.3250   18.1590 C.ar    1  LIG1       -0.2707
      6 N          27.6060   22.1120   17.0260 N.ar    1  LIG1       -0.4682
      7 C          28.6720   21.0440   19.0580 C.3     1  LIG1        1.5177
      8 F          28.3600   20.2010   20.0850 F       1  LIG1       -0.4778
      9 F          29.1690   22.1790   19.6310 F       1  LIG1       -0.4398
     10 F          29.7110   20.4630   18.3890 F       1  LIG1       -0.4443
     11 C          24.0490   21.3760   17.1230 C.ar    1  LIG1        0.3615
     12 C          23.3440   22.2600   16.2930 C.ar    1  LIG1       -0.3457
     13 H          23.8370   23.0620   15.7510 H       1  LIG1        0.2088
     14 C          21.9520   22.1710   16.1790 C.ar    1  LIG1        0.0480
     15 H          21.4250   22.8670   15.5290 H       1  LIG1        0.1934
     16 C          21.2550   21.2070   16.9090 C.ar    1  LIG1       -0.5444
     17 C          21.9400   20.3260   17.7460 C.ar    1  LIG1        0.0191
     18 H          21.4080   19.5650   18.3140 H       1  LIG1        0.1962
     19 C          23.3320   20.4170   17.8600 C.ar    1  LIG1       -0.2943
     20 H          23.8320   19.6990   18.5070 H       1  LIG1        0.2069
     21 S          19.4890   21.0850   16.7440 S.O2    1  LIG1        2.1817
     22 O          18.9630   22.4270   16.5160 O.2     1  LIG1       -0.9598
     23 O          18.9860   20.3260   17.8840 O.2     1  LIG1       -0.9571
     24 C          19.2700   20.1260   15.2680 C.3     1  LIG1       -0.7318
     25 H          18.1980   20.0080   15.0970 H       1  LIG1        0.2460
     26 H          19.7330   19.1470   15.4080 H       1  LIG1        0.1965
     27 H          19.7250   20.6550   14.4290 H       1  LIG1        0.1942
     28 C          26.1790   22.7030   15.1270 C.ar    1  LIG1        0.1694
     29 C          26.4420   24.0670   14.9080 C.ar    1  LIG1       -0.5955
     30 H          26.7910   24.6580   15.7510 H       1  LIG1        0.2511
     31 C          26.2540   24.6420   13.6450 C.ar    1  LIG1        1.0221
     32 C          25.8110   23.8270   12.5900 C.ar    1  LIG1       -0.8986
     33 C          25.5670   22.4670   12.7930 C.ar    1  LIG1        0.3320
     34 H          25.2320   21.8360   11.9730 H       1  LIG1        0.0856
     35 C          25.7580   21.9050   14.0560 C.ar    1  LIG1       -0.3732
     36 H          25.5760   20.8400   14.1930 H       1  LIG1        0.1710
     37 CL         25.5560   24.4680   11.0030 Cl      1  LIG1        0.1856
     38 O          26.4770   25.9640   13.3520 O.3     1  LIG1       -0.5946
     39 C          26.9090   26.8090   14.4160 C.3     1  LIG1        0.1564
     40 H          27.0280   27.8190   14.0110 H       1  LIG1        0.0990
     41 H          27.8820   26.4880   14.8020 H       1  LIG1        0.0282
     42 H          26.1590   26.8550   15.2110 H       1  LIG1        0.0193
@<TRIPOS>BOND
     1     1     2   ar
     2     2     3   ar
     3     3     4    1
     4     3     5   ar
     5     5     6   ar
     6     6     1   ar
     7     5     7    1
     8     7     8    1
     9     7     9    1
    10     7    10    1
    11     2    11    1
    12    11    12   ar
    13    12    13    1
    14    12    14   ar
    15    14    15    1
    16    14    16   ar
    17    16    17   ar
    18    17    18    1
    19    17    19   ar
    20    19    20    1
    21    19    11   ar
    22    16    21    1
    23    21    22    2
    24    21    23    2
    25    21    24    1
    26    24    25    1
    27    24    26    1
    28    24    27    1
    29     1    28    1
    30    28    29   ar
    31    29    30    1
    32    29    31   ar
    33    31    32   ar
    34    32    33   ar
    35    33    34    1
    36    33    35   ar
    37    35    36    1
    38    35    28   ar
    39    32    37    1
    40    31    38    1
    41    38    39    1
    42    39    40    1
    43    39    41    1
    44    39    42    1
