@<TRIPOS>MOLECULE
3_6
 38 40 0 0 0
SMALL
USER_CHARGES
****
From 3DB ct
@<TRIPOS>ATOM
      1 C          26.4080   22.1300   16.4600 C.ar    1  LIG1        0.2785
      2 N          25.4700   21.4600   17.2560 N.ar    1  LIG1       -0.1141
      3 C          26.1980   20.8850   18.2820 C.ar    1  LIG1       -0.2376
      4 H          25.7400   20.2780   19.0500 H       1  LIG1        0.2936
      5 C          27.5010   21.3250   18.1620 C.ar    1  LIG1       -0.2164
      6 N          27.6050   22.1150   17.0310 N.ar    1  LIG1       -0.4689
      7 C          28.6680   21.0440   19.0620 C.3     1  LIG1        1.4803
      8 F          28.3530   20.2040   20.0920 F       1  LIG1       -0.4713
      9 F          29.1660   22.1790   19.6340 F       1  LIG1       -0.4327
     10 F          29.7070   20.4600   18.3970 F       1  LIG1       -0.4371
     11 C          24.0490   21.3750   17.1200 C.ar    1  LIG1        0.3428
     12 C          23.3440   22.2590   16.2910 C.ar    1  LIG1       -0.3834
     13 H          23.8380   23.0600   15.7470 H       1  LIG1        0.2254
     14 C          21.9520   22.1720   16.1780 C.ar    1  LIG1        0.0694
     15 H          21.4250   22.8690   15.5290 H       1  LIG1        0.1879
     16 C          21.2550   21.2090   16.9090 C.ar    1  LIG1       -0.5378
     17 C          21.9400   20.3260   17.7440 C.ar    1  LIG1        0.0140
     18 H          21.4070   19.5660   18.3120 H       1  LIG1        0.1944
     19 C          23.3320   20.4160   17.8570 C.ar    1  LIG1       -0.2912
     20 H          23.8310   19.6970   18.5040 H       1  LIG1        0.2056
     21 S          19.4880   21.0850   16.7480 S.O2    1  LIG1        2.1755
     22 O          18.9610   22.4310   16.5430 O.2     1  LIG1       -0.9588
     23 O          18.9890   20.3100   17.8800 O.2     1  LIG1       -0.9567
     24 C          19.2660   20.1460   15.2610 C.3     1  LIG1       -0.7246
     25 H          18.1930   20.0290   15.0920 H       1  LIG1        0.2452
     26 H          19.7310   19.1670   15.3860 H       1  LIG1        0.1949
     27 H          19.7160   20.6880   14.4280 H       1  LIG1        0.1903
     28 C          26.1810   22.7070   15.1300 C.ar    1  LIG1        0.2176
     29 C          26.4410   24.0670   14.9090 C.ar    1  LIG1       -0.3655
     30 H          26.7900   24.6990   15.7250 H       1  LIG1        0.2278
     31 C          26.2520   24.6310   13.6430 C.ar    1  LIG1        0.3117
     32 H          26.4510   25.6890   13.4920 H       1  LIG1        0.0699
     33 C          25.8150   23.8320   12.5880 C.ar    1  LIG1       -0.6554
     34 C          25.5710   22.4750   12.7870 C.ar    1  LIG1        0.2324
     35 H          25.2380   21.8460   11.9650 H       1  LIG1        0.0846
     36 C          25.7600   21.9120   14.0530 C.ar    1  LIG1       -0.2896
     37 H          25.5790   20.8470   14.1880 H       1  LIG1        0.1589
     38 CL         25.5820   24.5240   11.0300 Cl      1  LIG1        0.1402
@<TRIPOS>BOND
     1     1     2   ar
     2     2     3   ar
     3     3     4    1
     4     3     5   ar
     5     5     6   ar
     6     6     1   ar
     7     5     7    1
     8     7     8    1
     9     7     9    1
    10     7    10    1
    11     2    11    1
    12    11    12   ar
    13    12    13    1
    14    12    14   ar
    15    14    15    1
    16    14    16   ar
    17    16    17   ar
    18    17    18    1
    19    17    19   ar
    20    19    20    1
    21    19    11   ar
    22    16    21    1
    23    21    22    2
    24    21    23    2
    25    21    24    1
    26    24    25    1
    27    24    26    1
    28    24    27    1
    29     1    28    1
    30    28    29   ar
    31    29    30    1
    32    29    31   ar
    33    31    32    1
    34    31    33   ar
    35    33    34   ar
    36    34    35    1
    37    34    36   ar
    38    36    37    1
    39    36    28   ar
    40    33    38    1
