@<TRIPOS>MOLECULE
3_61
 42 44 0 0 0
SMALL
USER_CHARGES
****
From 3DB ct
@<TRIPOS>ATOM
      1 C          26.4070   22.1280   16.4590 C.ar    1  LIG1        0.5800
      2 N          25.4700   21.4600   17.2590 N.ar    1  LIG1       -0.3038
      3 C          26.2000   20.8870   18.2840 C.ar    1  LIG1       -0.1429
      4 H          25.7420   20.2830   19.0550 H       1  LIG1        0.2842
      5 C          27.5030   21.3250   18.1600 C.ar    1  LIG1       -0.3173
      6 N          27.6060   22.1120   17.0260 N.ar    1  LIG1       -0.4789
      7 C          28.6720   21.0470   19.0610 C.3     1  LIG1        1.5435
      8 F          28.3550   20.2180   20.0980 F       1  LIG1       -0.4834
      9 F          29.1760   22.1850   19.6210 F       1  LIG1       -0.4446
     10 F          29.7060   20.4520   18.3980 F       1  LIG1       -0.4474
     11 C          24.0490   21.3750   17.1240 C.ar    1  LIG1        0.4037
     12 C          23.3460   22.2600   16.2940 C.ar    1  LIG1       -0.3413
     13 H          23.8400   23.0630   15.7530 H       1  LIG1        0.2012
     14 C          21.9540   22.1720   16.1790 C.ar    1  LIG1        0.0552
     15 H          21.4270   22.8690   15.5300 H       1  LIG1        0.1921
     16 C          21.2570   21.2080   16.9090 C.ar    1  LIG1       -0.5540
     17 C          21.9400   20.3270   17.7460 C.ar    1  LIG1        0.0209
     18 H          21.4070   19.5670   18.3140 H       1  LIG1        0.1981
     19 C          23.3320   20.4170   17.8600 C.ar    1  LIG1       -0.3063
     20 H          23.8320   19.6990   18.5080 H       1  LIG1        0.2107
     21 S          19.4900   21.0850   16.7410 S.O2    1  LIG1        2.1972
     22 O          18.9630   22.4290   16.5240 O.2     1  LIG1       -0.9661
     23 O          18.9870   20.3180   17.8770 O.2     1  LIG1       -0.9630
     24 C          19.2720   20.1360   15.2600 C.3     1  LIG1       -0.7298
     25 H          18.2000   20.0210   15.0860 H       1  LIG1        0.2442
     26 H          19.7340   19.1560   15.3930 H       1  LIG1        0.1958
     27 H          19.7280   20.6700   14.4250 H       1  LIG1        0.1961
     28 C          26.1780   22.7030   15.1290 C.ar    1  LIG1       -0.0637
     29 C          26.4390   24.0640   14.9040 C.ar    1  LIG1       -0.3426
     30 H          26.7900   24.6870   15.7270 H       1  LIG1        0.1986
     31 C          26.2510   24.6390   13.6410 C.ar    1  LIG1        0.5791
     32 C          25.8110   23.8420   12.5880 C.ar    1  LIG1       -0.6184
     33 H          25.6480   24.2310   11.5890 H       1  LIG1        0.2849
     34 C          25.5740   22.4870   12.8060 C.ar    1  LIG1        0.6692
     35 C          25.7570   21.9100   14.0570 C.ar    1  LIG1       -0.4360
     36 H          25.5720   20.8460   14.1800 H       1  LIG1        0.2192
     37 F          25.1630   21.7220   11.7860 F       1  LIG1       -0.3670
     38 O          26.5320   25.9770   13.5730 O.3     1  LIG1       -0.4438
     39 C          26.9720   26.6030   14.7780 C.3     1  LIG1        0.0908
     40 H          27.1540   27.6590   14.5570 H       1  LIG1        0.0919
     41 H          27.9140   26.1670   15.1260 H       1  LIG1        0.0505
     42 H          26.1990   26.5510   15.5520 H       1  LIG1        0.0434
@<TRIPOS>BOND
     1     1     2   ar
     2     2     3   ar
     3     3     4    1
     4     3     5   ar
     5     5     6   ar
     6     6     1   ar
     7     5     7    1
     8     7     8    1
     9     7     9    1
    10     7    10    1
    11     2    11    1
    12    11    12   ar
    13    12    13    1
    14    12    14   ar
    15    14    15    1
    16    14    16   ar
    17    16    17   ar
    18    17    18    1
    19    17    19   ar
    20    19    20    1
    21    19    11   ar
    22    16    21    1
    23    21    22    2
    24    21    23    2
    25    21    24    1
    26    24    25    1
    27    24    26    1
    28    24    27    1
    29     1    28    1
    30    28    29   ar
    31    29    30    1
    32    29    31   ar
    33    31    32   ar
    34    32    33    1
    35    32    34   ar
    36    34    35   ar
    37    35    36    1
    38    35    28   ar
    39    34    37    1
    40    31    38    1
    41    38    39    1
    42    39    40    1
    43    39    41    1
    44    39    42    1
