@<TRIPOS>MOLECULE
3_66
 41 43 0 0 0
SMALL
USER_CHARGES
****
From 3DB ct
@<TRIPOS>ATOM
      1 C          26.4050   22.1310   16.4600 C.ar    1  LIG1        0.5780
      2 N          25.4700   21.4590   17.2570 N.ar    1  LIG1       -0.3195
      3 C          26.2010   20.8820   18.2790 C.ar    1  LIG1       -0.1587
      4 H          25.7440   20.2720   19.0470 H       1  LIG1        0.2840
      5 C          27.5020   21.3250   18.1590 C.ar    1  LIG1       -0.3075
      6 N          27.6030   22.1180   17.0290 N.ar    1  LIG1       -0.4681
      7 C          28.6710   21.0460   19.0580 C.3     1  LIG1        1.5376
      8 F          28.3600   20.1980   20.0830 F       1  LIG1       -0.4825
      9 F          29.1620   22.1800   19.6360 F       1  LIG1       -0.4438
     10 F          29.7130   20.4710   18.3890 F       1  LIG1       -0.4467
     11 C          24.0480   21.3730   17.1230 C.ar    1  LIG1        0.4791
     12 C          23.3440   22.2590   16.2940 C.ar    1  LIG1       -0.3827
     13 H          23.8370   23.0610   15.7520 H       1  LIG1        0.2136
     14 C          21.9520   22.1710   16.1830 C.ar    1  LIG1        0.1171
     15 H          21.4200   22.8690   15.5370 H       1  LIG1        0.1923
     16 C          21.2540   21.2070   16.9130 C.ar    1  LIG1       -0.6530
     17 C          21.9390   20.3260   17.7490 C.ar    1  LIG1        0.0926
     18 H          21.4060   19.5680   18.3190 H       1  LIG1        0.1916
     19 C          23.3320   20.4150   17.8610 C.ar    1  LIG1       -0.3560
     20 H          23.8320   19.6980   18.5080 H       1  LIG1        0.2174
     21 S          19.4950   21.0880   16.7400 S.O2    1  LIG1        2.4641
     22 O          18.9470   22.4010   16.4470 O.2     1  LIG1       -0.9920
     23 O          18.9650   20.2970   17.8360 O.2     1  LIG1       -0.9885
     24 N          19.3390   20.1750   15.3450 N.3     1  LIG1       -1.2956
     25 H          18.8620   20.7030   14.6090 H       1  LIG1        0.4836
     26 H          18.8650   19.2880   15.5340 H       1  LIG1        0.4836
     27 C          26.1780   22.7080   15.1300 C.ar    1  LIG1       -0.2822
     28 C          26.4380   24.0650   14.9090 C.ar    1  LIG1       -0.2639
     29 H          26.7850   24.7010   15.7200 H       1  LIG1        0.2610
     30 C          26.2510   24.6230   13.6440 C.ar    1  LIG1        0.3735
     31 C          25.8140   23.8450   12.5690 C.ar    1  LIG1        0.3246
     32 C          25.5750   22.4850   12.7860 C.ar    1  LIG1       -0.4222
     33 H          25.2430   21.8520   11.9640 H       1  LIG1        0.2331
     34 C          25.7620   21.9180   14.0520 C.ar    1  LIG1        0.0769
     35 H          25.5800   20.8510   14.1810 H       1  LIG1        0.1301
     36 O          25.5880   24.2560   11.2840 O.3     1  LIG1       -0.3894
     37 C          25.8030   25.6350   10.9930 C.3     1  LIG1        0.0623
     38 H          25.5680   25.7910    9.9360 H       1  LIG1        0.0852
     39 H          26.8520   25.9090   11.1430 H       1  LIG1        0.0705
     40 H          25.1320   26.2710   11.5790 H       1  LIG1        0.0646
     41 F          26.5090   25.9310   13.5020 F       1  LIG1       -0.3640
@<TRIPOS>BOND
     1     1     2   ar
     2     2     3   ar
     3     3     4    1
     4     3     5   ar
     5     5     6   ar
     6     6     1   ar
     7     5     7    1
     8     7     8    1
     9     7     9    1
    10     7    10    1
    11     2    11    1
    12    11    12   ar
    13    12    13    1
    14    12    14   ar
    15    14    15    1
    16    14    16   ar
    17    16    17   ar
    18    17    18    1
    19    17    19   ar
    20    19    20    1
    21    19    11   ar
    22    16    21    1
    23    21    22    2
    24    21    23    2
    25    21    24    1
    26    24    25    1
    27    24    26    1
    28     1    27    1
    29    27    28   ar
    30    28    29    1
    31    28    30   ar
    32    30    31   ar
    33    31    32   ar
    34    32    33    1
    35    32    34   ar
    36    34    35    1
    37    34    27   ar
    38    31    36    1
    39    36    37    1
    40    37    38    1
    41    37    39    1
    42    37    40    1
    43    30    41    1
