@<TRIPOS>MOLECULE
3_79
 48 50 0 0 0
SMALL
USER_CHARGES
****
From 3DB ct
@<TRIPOS>ATOM
      1 C          26.4090   22.1280   16.4590 C.ar    1  LIG1        0.5851
      2 N          25.4700   21.4610   17.2580 N.ar    1  LIG1       -0.2937
      3 C          26.1980   20.8890   18.2860 C.ar    1  LIG1       -0.1667
      4 H          25.7380   20.2860   19.0560 H       1  LIG1        0.2884
      5 C          27.5010   21.3260   18.1640 C.ar    1  LIG1       -0.3216
      6 N          27.6070   22.1120   17.0300 N.ar    1  LIG1       -0.4730
      7 C          28.6680   21.0460   19.0660 C.3     1  LIG1        1.5539
      8 F          28.3500   20.2150   20.1010 F       1  LIG1       -0.4868
      9 F          29.1720   22.1830   19.6290 F       1  LIG1       -0.4475
     10 F          29.7040   20.4520   18.4040 F       1  LIG1       -0.4513
     11 C          24.0490   21.3750   17.1210 C.ar    1  LIG1        0.4102
     12 C          23.3440   22.2590   16.2910 C.ar    1  LIG1       -0.3337
     13 H          23.8370   23.0600   15.7470 H       1  LIG1        0.2034
     14 C          21.9520   22.1700   16.1770 C.ar    1  LIG1        0.0516
     15 H          21.4250   22.8670   15.5280 H       1  LIG1        0.1905
     16 C          21.2560   21.2070   16.9080 C.ar    1  LIG1       -0.5567
     17 C          21.9400   20.3250   17.7440 C.ar    1  LIG1        0.0256
     18 H          21.4080   19.5640   18.3110 H       1  LIG1        0.1963
     19 C          23.3320   20.4150   17.8560 C.ar    1  LIG1       -0.3228
     20 H          23.8320   19.6970   18.5030 H       1  LIG1        0.2121
     21 S          19.4890   21.0870   16.7470 S.O2    1  LIG1        2.1952
     22 O          18.9630   22.4310   16.5310 O.2     1  LIG1       -0.9645
     23 O          18.9880   20.3190   17.8830 O.2     1  LIG1       -0.9636
     24 C          19.2650   20.1390   15.2650 C.3     1  LIG1       -0.7292
     25 H          18.1920   20.0240   15.0950 H       1  LIG1        0.2420
     26 H          19.7270   19.1590   15.3950 H       1  LIG1        0.1936
     27 H          19.7180   20.6750   14.4280 H       1  LIG1        0.1947
     28 C          26.1830   22.7030   15.1280 C.ar    1  LIG1       -0.2313
     29 C          26.4410   24.0630   14.9070 C.ar    1  LIG1       -0.2245
     30 H          26.7870   24.6810   15.7360 H       1  LIG1        0.2188
     31 C          26.2500   24.6410   13.6420 C.ar    1  LIG1        0.1923
     32 C          25.8480   23.8180   12.5780 C.ar    1  LIG1        0.0410
     33 C          25.5530   22.4600   12.7810 C.ar    1  LIG1        0.1116
     34 C          25.7550   21.9080   14.0560 C.ar    1  LIG1       -0.1638
     35 H          25.5720   20.8450   14.2110 H       1  LIG1        0.1738
     36 C          25.0780   21.5730   11.6640 C.3     1  LIG1       -0.3420
     37 H          24.5010   20.7270   12.0550 H       1  LIG1        0.0873
     38 H          25.9330   21.1810   11.1050 H       1  LIG1        0.1198
     39 H          24.4190   22.1170   10.9810 H       1  LIG1        0.1240
     40 O          25.6650   24.3680   11.3330 O.3     1  LIG1       -0.3668
     41 C          26.8740   24.2820   10.5690 C.3     1  LIG1        0.0792
     42 H          26.6820   24.7310    9.5910 H       1  LIG1        0.0829
     43 H          27.1720   23.2400   10.4110 H       1  LIG1        0.0410
     44 H          27.6880   24.8390   11.0450 H       1  LIG1        0.0409
     45 C          26.5290   26.1060   13.4540 C.3     1  LIG1       -0.3527
     46 H          27.5530   26.2510   13.0980 H       1  LIG1        0.1173
     47 H          26.4080   26.6510   14.3960 H       1  LIG1        0.1004
     48 H          25.8310   26.5510   12.7380 H       1  LIG1        0.1193
@<TRIPOS>BOND
     1     1     2   ar
     2     2     3   ar
     3     3     4    1
     4     3     5   ar
     5     5     6   ar
     6     6     1   ar
     7     5     7    1
     8     7     8    1
     9     7     9    1
    10     7    10    1
    11     2    11    1
    12    11    12   ar
    13    12    13    1
    14    12    14   ar
    15    14    15    1
    16    14    16   ar
    17    16    17   ar
    18    17    18    1
    19    17    19   ar
    20    19    20    1
    21    19    11   ar
    22    16    21    1
    23    21    22    2
    24    21    23    2
    25    21    24    1
    26    24    25    1
    27    24    26    1
    28    24    27    1
    29     1    28    1
    30    28    29   ar
    31    29    30    1
    32    29    31   ar
    33    31    32   ar
    34    32    33   ar
    35    33    34   ar
    36    34    35    1
    37    34    28   ar
    38    33    36    1
    39    36    37    1
    40    36    38    1
    41    36    39    1
    42    32    40    1
    43    40    41    1
    44    41    42    1
    45    41    43    1
    46    41    44    1
    47    31    45    1
    48    45    46    1
    49    45    47    1
    50    45    48    1
