@<TRIPOS>MOLECULE
3_87
 38 40 0 0 0
SMALL
USER_CHARGES
****
From 3DB ct
@<TRIPOS>ATOM
      1 C          26.4090   22.1300   16.4600 C.ar    1  LIG1        0.1741
      2 N          25.4700   21.4600   17.2560 N.ar    1  LIG1       -0.0524
      3 C          26.1990   20.8860   18.2830 C.ar    1  LIG1       -0.3933
      4 H          25.7390   20.2810   19.0510 H       1  LIG1        0.3085
      5 C          27.4990   21.3260   18.1580 C.ar    1  LIG1       -0.0811
      6 N          27.6060   22.1130   17.0300 N.ar    1  LIG1       -0.4040
      7 C          28.6660   21.0480   19.0520 C.3     1  LIG1        0.9738
      8 H          28.4030   20.3980   19.8900 H       1  LIG1       -0.0133
      9 F          29.1880   22.2090   19.5540 F       1  LIG1       -0.4143
     10 F          29.6890   20.4620   18.3570 F       1  LIG1       -0.4188
     11 C          24.0490   21.3750   17.1210 C.ar    1  LIG1        0.3701
     12 C          23.3440   22.2590   16.2910 C.ar    1  LIG1       -0.4098
     13 H          23.8380   23.0610   15.7470 H       1  LIG1        0.2336
     14 C          21.9520   22.1720   16.1770 C.ar    1  LIG1        0.0731
     15 H          21.4260   22.8690   15.5280 H       1  LIG1        0.1867
     16 C          21.2550   21.2090   16.9080 C.ar    1  LIG1       -0.5484
     17 C          21.9400   20.3260   17.7440 C.ar    1  LIG1        0.0225
     18 H          21.4070   19.5660   18.3120 H       1  LIG1        0.1929
     19 C          23.3320   20.4160   17.8570 C.ar    1  LIG1       -0.3050
     20 H          23.8310   19.6980   18.5040 H       1  LIG1        0.2045
     21 S          19.4890   21.0850   16.7470 S.O2    1  LIG1        2.1772
     22 O          18.9610   22.4300   16.5390 O.2     1  LIG1       -0.9608
     23 O          18.9890   20.3110   17.8790 O.2     1  LIG1       -0.9584
     24 C          19.2670   20.1430   15.2610 C.3     1  LIG1       -0.7271
     25 H          18.1940   20.0240   15.0930 H       1  LIG1        0.2441
     26 H          19.7330   19.1650   15.3870 H       1  LIG1        0.1949
     27 H          19.7160   20.6840   14.4270 H       1  LIG1        0.1921
     28 C          26.1810   22.7070   15.1300 C.ar    1  LIG1        0.2449
     29 C          26.4420   24.0670   14.9090 C.ar    1  LIG1       -0.3707
     30 H          26.7920   24.6980   15.7240 H       1  LIG1        0.2216
     31 C          26.2500   24.6310   13.6430 C.ar    1  LIG1        0.3179
     32 H          26.4490   25.6890   13.4920 H       1  LIG1        0.0696
     33 C          25.8100   23.8330   12.5890 C.ar    1  LIG1       -0.6616
     34 C          25.5670   22.4760   12.7880 C.ar    1  LIG1        0.2285
     35 H          25.2320   21.8460   11.9670 H       1  LIG1        0.0843
     36 C          25.7580   21.9120   14.0540 C.ar    1  LIG1       -0.2896
     37 H          25.5760   20.8470   14.1890 H       1  LIG1        0.1571
     38 CL         25.5750   24.5260   11.0320 Cl      1  LIG1        0.1366
@<TRIPOS>BOND
     1     1     2   ar
     2     2     3   ar
     3     3     4    1
     4     3     5   ar
     5     5     6   ar
     6     6     1   ar
     7     5     7    1
     8     7     8    1
     9     7     9    1
    10     7    10    1
    11     2    11    1
    12    11    12   ar
    13    12    13    1
    14    12    14   ar
    15    14    15    1
    16    14    16   ar
    17    16    17   ar
    18    17    18    1
    19    17    19   ar
    20    19    20    1
    21    19    11   ar
    22    16    21    1
    23    21    22    2
    24    21    23    2
    25    21    24    1
    26    24    25    1
    27    24    26    1
    28    24    27    1
    29     1    28    1
    30    28    29   ar
    31    29    30    1
    32    29    31   ar
    33    31    32    1
    34    31    33   ar
    35    33    34   ar
    36    34    35    1
    37    34    36   ar
    38    36    37    1
    39    36    28   ar
    40    33    38    1
