@<TRIPOS>MOLECULE
3_99
 42 44 0 0 0
SMALL
USER_CHARGES
****
From 3DB ct
@<TRIPOS>ATOM
      1 C          26.4090   22.1300   16.4600 C.ar    1  LIG1        0.2258
      2 N          25.4690   21.4610   17.2560 N.ar    1  LIG1       -0.2133
      3 C          26.1980   20.8870   18.2820 C.ar    1  LIG1       -0.3974
      4 H          25.7410   20.2840   19.0530 H       1  LIG1        0.2973
      5 C          27.4940   21.3310   18.1530 C.ar    1  LIG1        0.3063
      6 N          27.6070   22.1130   17.0310 N.ar    1  LIG1       -0.6143
      7 C          28.6640   21.0650   19.0420 C.3     1  LIG1        0.0724
      8 H          29.5850   21.0750   18.4470 H       1  LIG1        0.1085
      9 H          28.5580   20.0760   19.5030 H       1  LIG1        0.0668
     10 O          28.7550   22.0630   20.0730 O.3     1  LIG1       -0.4363
     11 C          29.8760   21.8150   20.9190 C.3     1  LIG1        0.0243
     12 H          29.9050   22.5940   21.6850 H       1  LIG1        0.0905
     13 H          30.8060   21.8540   20.3430 H       1  LIG1        0.0449
     14 H          29.7750   20.8430   21.4120 H       1  LIG1        0.0458
     15 C          24.0480   21.3750   17.1200 C.ar    1  LIG1        0.4796
     16 C          23.3430   22.2590   16.2900 C.ar    1  LIG1       -0.4233
     17 H          23.8370   23.0610   15.7470 H       1  LIG1        0.2230
     18 C          21.9510   22.1710   16.1770 C.ar    1  LIG1        0.0667
     19 H          21.4240   22.8690   15.5280 H       1  LIG1        0.1865
     20 C          21.2550   21.2080   16.9090 C.ar    1  LIG1       -0.5552
     21 C          21.9400   20.3260   17.7440 C.ar    1  LIG1        0.0218
     22 H          21.4070   19.5650   18.3120 H       1  LIG1        0.1917
     23 C          23.3320   20.4160   17.8570 C.ar    1  LIG1       -0.3431
     24 H          23.8320   19.6980   18.5040 H       1  LIG1        0.2253
     25 S          19.4880   21.0840   16.7490 S.O2    1  LIG1        2.1856
     26 O          18.9600   22.4300   16.5430 O.2     1  LIG1       -0.9660
     27 O          18.9890   20.3080   17.8800 O.2     1  LIG1       -0.9623
     28 C          19.2650   20.1450   15.2610 C.3     1  LIG1       -0.7376
     29 H          18.1920   20.0270   15.0930 H       1  LIG1        0.2435
     30 H          19.7310   19.1660   15.3860 H       1  LIG1        0.1961
     31 H          19.7140   20.6870   14.4280 H       1  LIG1        0.1930
     32 C          26.1830   22.7070   15.1300 C.ar    1  LIG1        0.3479
     33 C          26.4430   24.0670   14.9080 C.ar    1  LIG1       -0.4154
     34 H          26.7930   24.6980   15.7250 H       1  LIG1        0.2388
     35 C          26.2510   24.6310   13.6430 C.ar    1  LIG1        0.3132
     36 H          26.4510   25.6890   13.4920 H       1  LIG1        0.0691
     37 C          25.8120   23.8340   12.5890 C.ar    1  LIG1       -0.6751
     38 C          25.5680   22.4760   12.7880 C.ar    1  LIG1        0.2612
     39 H          25.2330   21.8470   11.9660 H       1  LIG1        0.0791
     40 C          25.7600   21.9130   14.0530 C.ar    1  LIG1       -0.3677
     41 H          25.5780   20.8480   14.1880 H       1  LIG1        0.1705
     42 CL         25.5760   24.5270   11.0320 Cl      1  LIG1        0.1319
@<TRIPOS>BOND
     1     1     2   ar
     2     2     3   ar
     3     3     4    1
     4     3     5   ar
     5     5     6   ar
     6     6     1   ar
     7     5     7    1
     8     7     8    1
     9     7     9    1
    10     7    10    1
    11    10    11    1
    12    11    12    1
    13    11    13    1
    14    11    14    1
    15     2    15    1
    16    15    16   ar
    17    16    17    1
    18    16    18   ar
    19    18    19    1
    20    18    20   ar
    21    20    21   ar
    22    21    22    1
    23    21    23   ar
    24    23    24    1
    25    23    15   ar
    26    20    25    1
    27    25    26    2
    28    25    27    2
    29    25    28    1
    30    28    29    1
    31    28    30    1
    32    28    31    1
    33     1    32    1
    34    32    33   ar
    35    33    34    1
    36    33    35   ar
    37    35    36    1
    38    35    37   ar
    39    37    38   ar
    40    38    39    1
    41    38    40   ar
    42    40    41    1
    43    40    32   ar
    44    37    42    1
