@<TRIPOS>MOLECULE
4_25
 37 39 0 0 0
SMALL
USER_CHARGES
****
From 3DB ct
@<TRIPOS>ATOM
      1 C          26.4060   22.1350   16.4660 C.ar    1  LIG1        0.3682
      2 N          25.4700   21.4550   17.2560 N.ar    1  LIG1       -0.1292
      3 C          26.1990   20.8730   18.2770 C.ar    1  LIG1       -0.2352
      4 H          25.7410   20.2570   19.0380 H       1  LIG1        0.2941
      5 C          27.4980   21.3230   18.1660 C.ar    1  LIG1       -0.2337
      6 N          27.6010   22.1230   17.0410 N.ar    1  LIG1       -0.4584
      7 C          28.6640   21.0420   19.0690 C.3     1  LIG1        1.4936
      8 F          29.1310   22.1720   19.6760 F       1  LIG1       -0.4372
      9 F          29.7220   20.5010   18.3970 F       1  LIG1       -0.4405
     10 F          28.3600   20.1670   20.0710 F       1  LIG1       -0.4724
     11 C          24.0500   21.3680   17.1170 C.ar    1  LIG1        0.3567
     12 C          23.3470   22.2550   16.2890 C.ar    1  LIG1       -0.3716
     13 H          23.8410   23.0620   15.7520 H       1  LIG1        0.2234
     14 C          21.9550   22.1680   16.1730 C.ar    1  LIG1        0.0593
     15 H          21.4290   22.8710   15.5300 H       1  LIG1        0.1902
     16 C          21.2590   21.1930   16.8890 C.ar    1  LIG1       -0.5488
     17 C          21.9410   20.3200   17.7370 C.ar    1  LIG1        0.0261
     18 H          21.4070   19.5620   18.3080 H       1  LIG1        0.1948
     19 C          23.3320   20.4100   17.8530 C.ar    1  LIG1       -0.2956
     20 H          23.8310   19.6950   18.5040 H       1  LIG1        0.2062
     21 S          19.4880   21.0980   16.7590 S.O2    1  LIG1        2.1887
     22 O          18.9780   22.4550   16.5880 O.2     1  LIG1       -0.9647
     23 O          18.9950   20.3090   17.8840 O.2     1  LIG1       -0.9607
     24 C          19.2250   20.1900   15.2590 C.3     1  LIG1       -0.7278
     25 H          18.1480   20.0880   15.1090 H       1  LIG1        0.2433
     26 H          19.6810   19.2030   15.3560 H       1  LIG1        0.1957
     27 H          19.6650   20.7410   14.4270 H       1  LIG1        0.1966
     28 C          26.1810   22.7140   15.1400 C.ar    1  LIG1       -0.3833
     29 C          26.4350   24.0680   14.9020 C.ar    1  LIG1        0.1756
     30 H          26.7800   24.7150   15.7070 H       1  LIG1        0.1566
     31 C          26.2420   24.5980   13.6280 C.ar    1  LIG1       -0.5089
     32 H          26.4270   25.6490   13.4270 H       1  LIG1        0.2176
     33 C          25.8130   23.7530   12.6180 C.ar    1  LIG1        0.4420
     34 H          25.6520   24.1310   11.6110 H       1  LIG1        0.0995
     35 N          25.5750   22.4320   12.7980 N.ar    1  LIG1       -0.7113
     36 C          25.7710   21.9450   14.0530 C.ar    1  LIG1        0.4875
     37 H          25.5870   20.8770   14.1580 H       1  LIG1        0.0634
@<TRIPOS>BOND
     1     1     2   ar
     2     2     3   ar
     3     3     4    1
     4     3     5   ar
     5     5     6   ar
     6     6     1   ar
     7     5     7    1
     8     7     8    1
     9     7     9    1
    10     7    10    1
    11     2    11    1
    12    11    12   ar
    13    12    13    1
    14    12    14   ar
    15    14    15    1
    16    14    16   ar
    17    16    17   ar
    18    17    18    1
    19    17    19   ar
    20    19    20    1
    21    19    11   ar
    22    16    21    1
    23    21    22    2
    24    21    23    2
    25    21    24    1
    26    24    25    1
    27    24    26    1
    28    24    27    1
    29     1    28    1
    30    28    29   ar
    31    29    30    1
    32    29    31   ar
    33    31    32    1
    34    31    33   ar
    35    33    34    1
    36    33    35   ar
    37    35    36   ar
    38    36    37    1
    39    36    28   ar
