@<TRIPOS>MOLECULE
4_41
 41 43 0 0 0
SMALL
USER_CHARGES
****
From 3DB ct
@<TRIPOS>ATOM
      1 C          26.4040   22.1330   16.4640 C.ar    1  LIG1        0.5015
      2 N          25.4690   21.4550   17.2560 N.ar    1  LIG1       -0.2013
      3 C          26.1980   20.8760   18.2780 C.ar    1  LIG1       -0.2011
      4 H          25.7410   20.2610   19.0410 H       1  LIG1        0.2918
      5 C          27.4980   21.3250   18.1660 C.ar    1  LIG1       -0.2796
      6 N          27.6000   22.1230   17.0390 N.ar    1  LIG1       -0.4622
      7 C          28.6640   21.0480   19.0690 C.3     1  LIG1        1.5272
      8 F          29.1240   22.1780   19.6810 F       1  LIG1       -0.4434
      9 F          29.7250   20.5140   18.3960 F       1  LIG1       -0.4467
     10 F          28.3630   20.1670   20.0680 F       1  LIG1       -0.4785
     11 C          24.0490   21.3680   17.1180 C.ar    1  LIG1        0.3586
     12 C          23.3460   22.2550   16.2900 C.ar    1  LIG1       -0.3255
     13 H          23.8390   23.0620   15.7540 H       1  LIG1        0.2035
     14 C          21.9540   22.1670   16.1740 C.ar    1  LIG1        0.0396
     15 H          21.4270   22.8700   15.5310 H       1  LIG1        0.1965
     16 C          21.2580   21.1920   16.8900 C.ar    1  LIG1       -0.5525
     17 C          21.9400   20.3190   17.7390 C.ar    1  LIG1        0.0219
     18 H          21.4060   19.5620   18.3100 H       1  LIG1        0.1945
     19 C          23.3320   20.4100   17.8540 C.ar    1  LIG1       -0.2831
     20 H          23.8310   19.6950   18.5060 H       1  LIG1        0.2033
     21 S          19.4870   21.0960   16.7610 S.O2    1  LIG1        2.1970
     22 O          18.9760   22.4530   16.5900 O.2     1  LIG1       -0.9669
     23 O          18.9960   20.3060   17.8860 O.2     1  LIG1       -0.9629
     24 C          19.2240   20.1880   15.2610 C.3     1  LIG1       -0.7241
     25 H          18.1470   20.0850   15.1120 H       1  LIG1        0.2423
     26 H          19.6810   19.2010   15.3580 H       1  LIG1        0.1944
     27 H          19.6630   20.7400   14.4290 H       1  LIG1        0.1956
     28 C          26.1800   22.7100   15.1370 C.ar    1  LIG1       -0.4704
     29 C          26.4340   24.0660   14.8990 C.ar    1  LIG1        0.0290
     30 H          26.7770   24.7030   15.7130 H       1  LIG1        0.1571
     31 C          26.2500   24.6090   13.6280 C.ar    1  LIG1        0.1561
     32 C          25.8210   23.7530   12.6200 C.ar    1  LIG1        0.2023
     33 H          25.6510   24.0970   11.6030 H       1  LIG1        0.1552
     34 N          25.5810   22.4280   12.7990 N.ar    1  LIG1       -0.6179
     35 C          25.7730   21.9390   14.0520 C.ar    1  LIG1        0.4224
     36 H          25.5900   20.8710   14.1560 H       1  LIG1        0.0741
     37 O          26.5170   25.9440   13.5160 O.3     1  LIG1       -0.4453
     38 C          26.9470   26.6080   14.7040 C.3     1  LIG1        0.1574
     39 H          27.1200   27.6590   14.4540 H       1  LIG1        0.0799
     40 H          27.8910   26.1900   15.0680 H       1  LIG1        0.0333
     41 H          26.1720   26.5700   15.4770 H       1  LIG1        0.0267
@<TRIPOS>BOND
     1     1     2   ar
     2     2     3   ar
     3     3     4    1
     4     3     5   ar
     5     5     6   ar
     6     6     1   ar
     7     5     7    1
     8     7     8    1
     9     7     9    1
    10     7    10    1
    11     2    11    1
    12    11    12   ar
    13    12    13    1
    14    12    14   ar
    15    14    15    1
    16    14    16   ar
    17    16    17   ar
    18    17    18    1
    19    17    19   ar
    20    19    20    1
    21    19    11   ar
    22    16    21    1
    23    21    22    2
    24    21    23    2
    25    21    24    1
    26    24    25    1
    27    24    26    1
    28    24    27    1
    29     1    28    1
    30    28    29   ar
    31    29    30    1
    32    29    31   ar
    33    31    32   ar
    34    32    33    1
    35    32    34   ar
    36    34    35   ar
    37    35    36    1
    38    35    28   ar
    39    31    37    1
    40    37    38    1
    41    38    39    1
    42    38    40    1
    43    38    41    1
