@<TRIPOS>MOLECULE
4_66
 43 46 0 0 0
SMALL
USER_CHARGES
****
From 3DB ct
@<TRIPOS>ATOM
      1 C          26.4070   22.1310   16.4650 C.ar    1  LIG1        0.4902
      2 N          25.4700   21.4550   17.2580 N.ar    1  LIG1       -0.2169
      3 C          26.1990   20.8730   18.2780 C.ar    1  LIG1       -0.1897
      4 H          25.7410   20.2590   19.0410 H       1  LIG1        0.2890
      5 C          27.5000   21.3190   18.1640 C.ar    1  LIG1       -0.2851
      6 N          27.6030   22.1170   17.0380 N.ar    1  LIG1       -0.4646
      7 C          28.6670   21.0370   19.0650 C.3     1  LIG1        1.5199
      8 F          28.3580   20.1800   20.0820 F       1  LIG1       -0.4775
      9 F          29.1510   22.1700   19.6530 F       1  LIG1       -0.4410
     10 F          29.7150   20.4740   18.3960 F       1  LIG1       -0.4441
     11 C          24.0500   21.3710   17.1210 C.ar    1  LIG1        0.3712
     12 C          23.3480   22.2580   16.2920 C.ar    1  LIG1       -0.3418
     13 H          23.8420   23.0610   15.7520 H       1  LIG1        0.2094
     14 C          21.9550   22.1720   16.1780 C.ar    1  LIG1        0.0563
     15 H          21.4300   22.8710   15.5300 H       1  LIG1        0.1902
     16 C          21.2570   21.2090   16.9090 C.ar    1  LIG1       -0.5535
     17 C          21.9400   20.3260   17.7440 C.ar    1  LIG1        0.0191
     18 H          21.4060   19.5670   18.3120 H       1  LIG1        0.1968
     19 C          23.3320   20.4130   17.8580 C.ar    1  LIG1       -0.2977
     20 H          23.8310   19.6950   18.5050 H       1  LIG1        0.2072
     21 S          19.4900   21.0910   16.7470 S.O2    1  LIG1        2.1975
     22 O          18.9650   22.4380   16.5490 O.2     1  LIG1       -0.9667
     23 O          18.9890   20.3090   17.8730 O.2     1  LIG1       -0.9636
     24 C          19.2660   20.1620   15.2530 C.3     1  LIG1       -0.7333
     25 H          18.1930   20.0460   15.0840 H       1  LIG1        0.2436
     26 H          19.7310   19.1810   15.3710 H       1  LIG1        0.1970
     27 H          19.7160   20.7090   14.4230 H       1  LIG1        0.1981
     28 C          26.1800   22.7110   15.1400 C.ar    1  LIG1       -0.3988
     29 C          26.4340   24.0620   14.9010 C.ar    1  LIG1       -0.0039
     30 H          26.7810   24.6960   15.7160 H       1  LIG1        0.1992
     31 C          26.2400   24.6050   13.6220 C.ar    1  LIG1       -0.1346
     32 C          25.8000   23.7450   12.5920 C.ar    1  LIG1        0.6221
     33 N          25.5700   22.4350   12.8010 N.ar    1  LIG1       -0.7284
     34 C          25.7690   21.9470   14.0550 C.ar    1  LIG1        0.4158
     35 H          25.5840   20.8790   14.1590 H       1  LIG1        0.0945
     36 C          25.6050   24.2850   11.3270 C.ar    1  LIG1       -0.3923
     37 H          25.2660   23.6390   10.5190 H       1  LIG1        0.2171
     38 C          25.8350   25.6400   11.0620 C.ar    1  LIG1       -0.0425
     39 H          25.6740   26.0320   10.0600 H       1  LIG1        0.1569
     40 C          26.2700   26.4810   12.0790 C.ar    1  LIG1       -0.1787
     41 H          26.4510   27.5350   11.8790 H       1  LIG1        0.1676
     42 C          26.4730   25.9660   13.3580 C.ar    1  LIG1       -0.1889
     43 H          26.8140   26.6330   14.1490 H       1  LIG1        0.1849
@<TRIPOS>BOND
     1     1     2   ar
     2     2     3   ar
     3     3     4    1
     4     3     5   ar
     5     5     6   ar
     6     6     1   ar
     7     5     7    1
     8     7     8    1
     9     7     9    1
    10     7    10    1
    11     2    11    1
    12    11    12   ar
    13    12    13    1
    14    12    14   ar
    15    14    15    1
    16    14    16   ar
    17    16    17   ar
    18    17    18    1
    19    17    19   ar
    20    19    20    1
    21    19    11   ar
    22    16    21    1
    23    21    22    2
    24    21    23    2
    25    21    24    1
    26    24    25    1
    27    24    26    1
    28    24    27    1
    29     1    28    1
    30    28    29   ar
    31    29    30    1
    32    29    31   ar
    33    31    32   ar
    34    32    33   ar
    35    33    34   ar
    36    34    35    1
    37    34    28   ar
    38    32    36   ar
    39    36    37    1
    40    36    38   ar
    41    38    39    1
    42    38    40   ar
    43    40    41    1
    44    40    42   ar
    45    42    43    1
    46    42    31   ar
