@<TRIPOS>MOLECULE
4_71
 35 37 0 0 0
SMALL
USER_CHARGES
****
From 3DB ct
@<TRIPOS>ATOM
      1 C          26.4110   22.1730   16.5270 C.ar    1  LIG1        0.5329
      2 N          25.4760   21.4480   17.2670 N.ar    1  LIG1       -0.1753
      3 C          26.2080   20.8100   18.2530 C.ar    1  LIG1       -0.1843
      4 H          25.7530   20.1490   18.9780 H       1  LIG1        0.2855
      5 C          27.5090   21.2650   18.1630 C.ar    1  LIG1       -0.2882
      6 N          27.6100   22.1310   17.0870 N.ar    1  LIG1       -0.4719
      7 C          28.6790   20.9300   19.0430 C.3     1  LIG1        1.5145
      8 F          28.3690   20.0180   20.0110 F       1  LIG1       -0.4784
      9 F          29.1680   22.0260   19.6920 F       1  LIG1       -0.4409
     10 F          29.7220   20.4010   18.3390 F       1  LIG1       -0.4399
     11 C          24.0560   21.3690   17.1260 C.ar    1  LIG1        0.3102
     12 C          23.3600   22.2590   16.2950 C.ar    1  LIG1       -0.3404
     13 H          23.8600   23.0580   15.7540 H       1  LIG1        0.2146
     14 C          21.9670   22.1800   16.1780 C.ar    1  LIG1        0.0526
     15 H          21.4460   22.8820   15.5290 H       1  LIG1        0.1912
     16 C          21.2630   21.2200   16.9050 C.ar    1  LIG1       -0.5334
     17 C          21.9390   20.3310   17.7410 C.ar    1  LIG1       -0.0028
     18 H          21.4010   19.5740   18.3060 H       1  LIG1        0.1969
     19 C          23.3320   20.4130   17.8580 C.ar    1  LIG1       -0.2539
     20 H          23.8250   19.6910   18.5060 H       1  LIG1        0.1991
     21 S          19.4950   21.1080   16.7400 S.O2    1  LIG1        2.1839
     22 O          18.9810   22.4510   16.4950 O.2     1  LIG1       -0.9637
     23 O          18.9840   20.3670   17.8890 O.2     1  LIG1       -0.9593
     24 C          19.2710   20.1300   15.2770 C.3     1  LIG1       -0.7362
     25 H          18.1990   20.0160   15.1070 H       1  LIG1        0.2466
     26 H          19.7290   19.1510   15.4300 H       1  LIG1        0.1973
     27 H          19.7290   20.6460   14.4310 H       1  LIG1        0.1928
     28 C          26.2140   22.8230   15.2610 C.ar    1  LIG1       -0.4059
     29 C          26.4490   24.1540   14.9730 C.ar    1  LIG1        0.0014
     30 H          26.7880   24.8730   15.7110 H       1  LIG1        0.1860
     31 C          26.1830   24.4710   13.6080 C.ar    1  LIG1       -0.1904
     32 H          26.2880   25.4590   13.1730 H       1  LIG1        0.1962
     33 C          25.7830   23.3650   12.8910 C.ar    1  LIG1       -0.3632
     34 H          25.5240   23.3160   11.8410 H       1  LIG1        0.2602
     35 S          25.7430   21.9550   13.8580 S.2     1  LIG1        0.2664
@<TRIPOS>BOND
     1     1     2   ar
     2     2     3   ar
     3     3     4    1
     4     3     5   ar
     5     5     6   ar
     6     6     1   ar
     7     5     7    1
     8     7     8    1
     9     7     9    1
    10     7    10    1
    11     2    11    1
    12    11    12   ar
    13    12    13    1
    14    12    14   ar
    15    14    15    1
    16    14    16   ar
    17    16    17   ar
    18    17    18    1
    19    17    19   ar
    20    19    20    1
    21    19    11   ar
    22    16    21    1
    23    21    22    2
    24    21    23    2
    25    21    24    1
    26    24    25    1
    27    24    26    1
    28    24    27    1
    29     1    28    1
    30    28    29   ar
    31    29    30    1
    32    29    31   ar
    33    31    32    1
    34    31    33   ar
    35    33    34    1
    36    33    35   ar
    37    35    28   ar
