@<TRIPOS>MOLECULE
4_72
 34 36 0 0 0
SMALL
USER_CHARGES
****
From 3DB ct
@<TRIPOS>ATOM
      1 C          26.4110   22.1720   16.5270 C.ar    1  LIG1        0.5604
      2 N          25.4760   21.4480   17.2690 N.ar    1  LIG1       -0.2311
      3 C          26.2100   20.8080   18.2520 C.ar    1  LIG1       -0.1739
      4 H          25.7550   20.1470   18.9780 H       1  LIG1        0.2809
      5 C          27.5110   21.2620   18.1600 C.ar    1  LIG1       -0.2848
      6 N          27.6110   22.1280   17.0840 N.ar    1  LIG1       -0.4782
      7 C          28.6820   20.9250   19.0370 C.3     1  LIG1        1.5146
      8 F          28.3670   20.0330   20.0210 F       1  LIG1       -0.4792
      9 F          29.1900   22.0250   19.6650 F       1  LIG1       -0.4415
     10 F          29.7130   20.3710   18.3350 F       1  LIG1       -0.4397
     11 C          24.0560   21.3710   17.1290 C.ar    1  LIG1        0.4238
     12 C          23.3600   22.2610   16.2990 C.ar    1  LIG1       -0.4246
     13 H          23.8600   23.0600   15.7580 H       1  LIG1        0.2271
     14 C          21.9670   22.1810   16.1820 C.ar    1  LIG1        0.1570
     15 H          21.4430   22.8820   15.5350 H       1  LIG1        0.1841
     16 C          21.2620   21.2200   16.9080 C.ar    1  LIG1       -0.6604
     17 C          21.9390   20.3340   17.7470 C.ar    1  LIG1        0.0815
     18 H          21.4000   19.5780   18.3130 H       1  LIG1        0.1913
     19 C          23.3320   20.4160   17.8640 C.ar    1  LIG1       -0.3146
     20 H          23.8260   19.6950   18.5120 H       1  LIG1        0.2079
     21 S          19.5030   21.1080   16.7280 S.O2    1  LIG1        2.4771
     22 O          18.9550   22.4320   16.4930 O.2     1  LIG1       -0.9982
     23 O          18.9710   20.2680   17.7860 O.2     1  LIG1       -0.9915
     24 N          19.3510   20.2570   15.2930 N.3     1  LIG1       -1.3105
     25 H          18.8750   20.8180   14.5810 H       1  LIG1        0.4873
     26 H          18.8760   19.3630   15.4420 H       1  LIG1        0.4881
     27 C          26.2110   22.8230   15.2610 C.ar    1  LIG1       -0.4199
     28 C          26.4460   24.1540   14.9730 C.ar    1  LIG1        0.0011
     29 H          26.7850   24.8730   15.7110 H       1  LIG1        0.1852
     30 C          26.1790   24.4700   13.6080 C.ar    1  LIG1       -0.1901
     31 H          26.2820   25.4580   13.1730 H       1  LIG1        0.1947
     32 C          25.7790   23.3650   12.8920 C.ar    1  LIG1       -0.3636
     33 H          25.5180   23.3160   11.8420 H       1  LIG1        0.2605
     34 S          25.7400   21.9540   13.8590 S.2     1  LIG1        0.2794
@<TRIPOS>BOND
     1     1     2   ar
     2     2     3   ar
     3     3     4    1
     4     3     5   ar
     5     5     6   ar
     6     6     1   ar
     7     5     7    1
     8     7     8    1
     9     7     9    1
    10     7    10    1
    11     2    11    1
    12    11    12   ar
    13    12    13    1
    14    12    14   ar
    15    14    15    1
    16    14    16   ar
    17    16    17   ar
    18    17    18    1
    19    17    19   ar
    20    19    20    1
    21    19    11   ar
    22    16    21    1
    23    21    22    2
    24    21    23    2
    25    21    24    1
    26    24    25    1
    27    24    26    1
    28     1    27    1
    29    27    28   ar
    30    28    29    1
    31    28    30   ar
    32    30    31    1
    33    30    32   ar
    34    32    33    1
    35    32    34   ar
    36    34    27   ar
