@<TRIPOS>MOLECULE
5_1k
 43 45 0 0 0
SMALL
USER_CHARGES
****
From 3DB ct
@<TRIPOS>ATOM
      1 C          26.3820   22.0710   16.4160 C.2     1  LIG1        0.0735
      2 C          25.4950   21.4960   17.2530 C.2     1  LIG1       -0.2278
      3 C          26.1780   20.9440   18.4750 C.3     1  LIG1       -0.0334
      4 H          25.8680   19.9270   18.7310 H       1  LIG1        0.0407
      5 H          25.9950   21.5960   19.3360 H       1  LIG1        0.0691
      6 C          27.6510   20.9620   18.0780 C.3     1  LIG1       -0.0813
      7 H          27.9350   19.9840   17.6660 H       1  LIG1        0.0577
      8 H          28.3080   21.1600   18.9300 H       1  LIG1        0.0309
      9 C          27.7700   22.0300   16.9960 C.3     1  LIG1       -0.1217
     10 H          28.0360   22.9990   17.4320 H       1  LIG1        0.0924
     11 H          28.5290   21.7490   16.2590 H       1  LIG1        0.0560
     12 C          24.0380   21.3850   17.1160 C.ar    1  LIG1        0.2636
     13 C          23.3300   22.2610   16.2800 C.ar    1  LIG1       -0.2301
     14 H          23.8560   23.0310   15.7160 H       1  LIG1        0.1680
     15 C          21.9400   22.1690   16.1570 C.ar    1  LIG1       -0.0388
     16 H          21.4150   22.8580   15.4980 H       1  LIG1        0.1909
     17 C          21.2470   21.2020   16.8870 C.ar    1  LIG1       -0.5043
     18 C          21.9340   20.3200   17.7230 C.ar    1  LIG1       -0.0081
     19 H          21.4040   19.5560   18.2890 H       1  LIG1        0.1730
     20 C          23.3240   20.4180   17.8400 C.ar    1  LIG1       -0.2931
     21 H          23.8440   19.7180   18.4920 H       1  LIG1        0.2118
     22 S          19.4820   21.0700   16.7190 S.O2    1  LIG1        2.1803
     23 O          18.9450   22.4150   16.5300 O.2     1  LIG1       -0.9749
     24 O          18.9840   20.2750   17.8370 O.2     1  LIG1       -0.9748
     25 C          19.2700   20.1510   15.2170 C.3     1  LIG1       -0.6901
     26 H          18.1990   20.0290   15.0430 H       1  LIG1        0.2273
     27 H          19.7420   19.1730   15.3290 H       1  LIG1        0.1816
     28 H          19.7190   20.7080   14.3930 H       1  LIG1        0.1743
     29 C          26.1540   22.7000   15.1090 C.ar    1  LIG1        0.0461
     30 C          26.4200   24.0610   14.9180 C.ar    1  LIG1       -0.1876
     31 H          26.7750   24.6790   15.7420 H       1  LIG1        0.1473
     32 C          26.2210   24.6630   13.6700 C.ar    1  LIG1       -0.1351
     33 H          26.4330   25.7260   13.5610 H       1  LIG1        0.1722
     34 C          25.7510   23.9160   12.5870 C.ar    1  LIG1       -0.0599
     35 C          25.5110   22.5510   12.7630 C.ar    1  LIG1       -0.0945
     36 H          25.1800   21.9290   11.9350 H       1  LIG1        0.1577
     37 C          25.7110   21.9510   14.0120 C.ar    1  LIG1       -0.2067
     38 H          25.5260   20.8820   14.1100 H       1  LIG1        0.1519
     39 S          25.5320   24.7270   11.0130 S.3     1  LIG1       -0.0694
     40 C          25.9940   26.4290   11.4510 C.3     1  LIG1       -0.2612
     41 H          26.0520   27.0260   10.5370 H       1  LIG1        0.1471
     42 H          26.9720   26.4480   11.9410 H       1  LIG1        0.0858
     43 H          25.2460   26.8800   12.1080 H       1  LIG1        0.0938
@<TRIPOS>BOND
     1     1     2    2
     2     2     3    1
     3     3     4    1
     4     3     5    1
     5     3     6    1
     6     6     7    1
     7     6     8    1
     8     6     9    1
     9     9    10    1
    10     9    11    1
    11     9     1    1
    12     2    12    1
    13    12    13   ar
    14    13    14    1
    15    13    15   ar
    16    15    16    1
    17    15    17   ar
    18    17    18   ar
    19    18    19    1
    20    18    20   ar
    21    20    21    1
    22    20    12   ar
    23    17    22    1
    24    22    23    2
    25    22    24    2
    26    22    25    1
    27    25    26    1
    28    25    27    1
    29    25    28    1
    30     1    29    1
    31    29    30   ar
    32    30    31    1
    33    30    32   ar
    34    32    33    1
    35    32    34   ar
    36    34    35   ar
    37    35    36    1
    38    35    37   ar
    39    37    38    1
    40    37    29   ar
    41    34    39    1
    42    39    40    1
    43    40    41    1
    44    40    42    1
    45    40    43    1
