@<TRIPOS>MOLECULE
5_7c
 45 47 0 0 0
SMALL
USER_CHARGES
****
From 3DB ct
@<TRIPOS>ATOM
      1 C          26.3830   22.0710   16.4170 C.2     1  LIG1        0.1407
      2 C          25.4970   21.4980   17.2570 C.2     1  LIG1       -0.1624
      3 C          26.1850   20.9450   18.4800 C.3     1  LIG1       -0.0941
      4 H          25.8400   19.9400   18.7430 H       1  LIG1        0.1163
      5 H          25.9850   21.6060   19.3320 H       1  LIG1        0.1444
      6 C          27.6650   20.9480   18.0780 C.3     1  LIG1       -0.6933
      7 C          27.7760   22.0240   16.9930 C.3     1  LIG1       -0.1789
      8 H          28.0360   23.0040   17.4100 H       1  LIG1        0.1537
      9 H          28.5230   21.7640   16.2340 H       1  LIG1        0.1374
     10 C          28.5590   21.2330   19.2440 C.3     1  LIG1        1.5227
     11 F          29.8680   21.2800   18.8980 F       1  LIG1       -0.4591
     12 F          28.2740   22.4360   19.8090 F       1  LIG1       -0.4369
     13 F          28.4400   20.3140   20.2310 F       1  LIG1       -0.4612
     14 C          28.0860   19.6010   17.5530 C.3     1  LIG1        1.5819
     15 F          27.9550   18.6190   18.4780 F       1  LIG1       -0.4619
     16 F          29.3800   19.5830   17.1460 F       1  LIG1       -0.4635
     17 F          27.3490   19.2090   16.4820 F       1  LIG1       -0.4630
     18 C          24.0410   21.3880   17.1190 C.ar    1  LIG1        0.2268
     19 C          23.3360   22.2640   16.2790 C.ar    1  LIG1       -0.2116
     20 H          23.8640   23.0330   15.7170 H       1  LIG1        0.1571
     21 C          21.9470   22.1720   16.1530 C.ar    1  LIG1       -0.0339
     22 H          21.4240   22.8600   15.4920 H       1  LIG1        0.1953
     23 C          21.2520   21.2040   16.8810 C.ar    1  LIG1       -0.4946
     24 C          21.9360   20.3220   17.7190 C.ar    1  LIG1       -0.0169
     25 H          21.4040   19.5580   18.2820 H       1  LIG1        0.1813
     26 C          23.3260   20.4210   17.8390 C.ar    1  LIG1       -0.2680
     27 H          23.8430   19.7190   18.4920 H       1  LIG1        0.2048
     28 S          19.4870   21.0730   16.7060 S.O2    1  LIG1        2.1686
     29 O          18.9530   22.4160   16.4970 O.2     1  LIG1       -0.9635
     30 O          18.9830   20.2940   17.8320 O.2     1  LIG1       -0.9626
     31 C          19.2800   20.1350   15.2160 C.3     1  LIG1       -0.7241
     32 H          18.2100   20.0120   15.0380 H       1  LIG1        0.2416
     33 H          19.7510   19.1580   15.3420 H       1  LIG1        0.1931
     34 H          19.7350   20.6810   14.3860 H       1  LIG1        0.1877
     35 C          26.1490   22.6990   15.1100 C.ar    1  LIG1       -0.1067
     36 C          26.4130   24.0640   14.9210 C.ar    1  LIG1       -0.0704
     37 H          26.7670   24.6830   15.7440 H       1  LIG1        0.1642
     38 C          26.2070   24.6630   13.6750 C.ar    1  LIG1       -0.3828
     39 H          26.4040   25.7220   13.5340 H       1  LIG1        0.2298
     40 C          25.7450   23.8960   12.6140 C.ar    1  LIG1        0.5925
     41 C          25.4890   22.5410   12.7720 C.ar    1  LIG1       -0.4118
     42 H          25.1350   21.9530   11.9310 H       1  LIG1        0.2365
     43 C          25.6950   21.9430   14.0180 C.ar    1  LIG1       -0.0379
     44 H          25.5040   20.8760   14.1230 H       1  LIG1        0.1480
     45 F          25.5480   24.4710   11.4190 F       1  LIG1       -0.3651
@<TRIPOS>BOND
     1     1     2    2
     2     2     3    1
     3     3     4    1
     4     3     5    1
     5     3     6    1
     6     6     7    1
     7     7     8    1
     8     7     9    1
     9     7     1    1
    10     6    10    1
    11    10    11    1
    12    10    12    1
    13    10    13    1
    14     6    14    1
    15    14    15    1
    16    14    16    1
    17    14    17    1
    18     2    18    1
    19    18    19   ar
    20    19    20    1
    21    19    21   ar
    22    21    22    1
    23    21    23   ar
    24    23    24   ar
    25    24    25    1
    26    24    26   ar
    27    26    27    1
    28    26    18   ar
    29    23    28    1
    30    28    29    2
    31    28    30    2
    32    28    31    1
    33    31    32    1
    34    31    33    1
    35    31    34    1
    36     1    35    1
    37    35    36   ar
    38    36    37    1
    39    36    38   ar
    40    38    39    1
    41    38    40   ar
    42    40    41   ar
    43    41    42    1
    44    41    43   ar
    45    43    44    1
    46    43    35   ar
    47    40    45    1
