@<TRIPOS>MOLECULE
6_7i
 43 45 0 0 0
SMALL
USER_CHARGES
****
From 3DB ct
@<TRIPOS>ATOM
      1 C          26.3830   22.0710   16.4160 C.2     1  LIG1        0.1669
      2 C          25.4950   21.4970   17.2530 C.2     1  LIG1       -0.2252
      3 C          26.1780   20.9450   18.4750 C.3     1  LIG1       -0.0495
      4 H          25.8660   19.9290   18.7320 H       1  LIG1        0.0479
      5 H          25.9960   21.5990   19.3350 H       1  LIG1        0.0771
      6 C          27.6510   20.9610   18.0760 C.3     1  LIG1       -0.1126
      7 H          27.9330   19.9830   17.6640 H       1  LIG1        0.0610
      8 H          28.3080   21.1570   18.9290 H       1  LIG1        0.0467
      9 C          27.7710   22.0290   16.9960 C.3     1  LIG1       -0.1414
     10 H          28.0380   22.9980   17.4320 H       1  LIG1        0.0921
     11 H          28.5290   21.7480   16.2580 H       1  LIG1        0.0708
     12 C          24.0380   21.3850   17.1150 C.ar    1  LIG1        0.2543
     13 C          23.3300   22.2620   16.2790 C.ar    1  LIG1       -0.2326
     14 H          23.8550   23.0330   15.7170 H       1  LIG1        0.1709
     15 C          21.9410   22.1690   16.1560 C.ar    1  LIG1       -0.0332
     16 H          21.4150   22.8580   15.4980 H       1  LIG1        0.1902
     17 C          21.2480   21.2020   16.8860 C.ar    1  LIG1       -0.5023
     18 C          21.9340   20.3190   17.7220 C.ar    1  LIG1       -0.0096
     19 H          21.4050   19.5560   18.2880 H       1  LIG1        0.1747
     20 C          23.3250   20.4180   17.8380 C.ar    1  LIG1       -0.3043
     21 H          23.8450   19.7180   18.4910 H       1  LIG1        0.2163
     22 S          19.4820   21.0710   16.7180 S.O2    1  LIG1        2.1801
     23 O          18.9470   22.4160   16.5260 O.2     1  LIG1       -0.9717
     24 O          18.9840   20.2800   17.8390 O.2     1  LIG1       -0.9721
     25 C          19.2690   20.1490   15.2190 C.3     1  LIG1       -0.7195
     26 H          18.1980   20.0310   15.0430 H       1  LIG1        0.2337
     27 H          19.7360   19.1690   15.3340 H       1  LIG1        0.1892
     28 H          19.7230   20.7020   14.3940 H       1  LIG1        0.1876
     29 C          26.1550   22.7010   15.1090 C.ar    1  LIG1       -0.1672
     30 C          26.4180   24.0610   14.9200 C.ar    1  LIG1       -0.2813
     31 H          26.7690   24.6840   15.7390 H       1  LIG1        0.2241
     32 C          26.2170   24.6580   13.6740 C.ar    1  LIG1        0.3493
     33 C          25.7600   23.9170   12.5820 C.ar    1  LIG1        0.2778
     34 C          25.5100   22.5550   12.7650 C.ar    1  LIG1       -0.3961
     35 H          25.1600   21.9480   11.9320 H       1  LIG1        0.2266
     36 C          25.7090   21.9520   14.0130 C.ar    1  LIG1        0.0115
     37 H          25.5170   20.8840   14.1120 H       1  LIG1        0.1350
     38 O          25.5210   24.3670   11.3120 O.3     1  LIG1       -0.3790
     39 C          25.7430   25.7520   11.0600 C.3     1  LIG1        0.0614
     40 H          25.4970   25.9400   10.0100 H       1  LIG1        0.0782
     41 H          26.7950   26.0150   11.2060 H       1  LIG1        0.0697
     42 H          25.0820   26.3740   11.6720 H       1  LIG1        0.0651
     43 F          26.4820   25.9690   13.5670 F       1  LIG1       -0.3608
@<TRIPOS>BOND
     1     1     2    2
     2     2     3    1
     3     3     4    1
     4     3     5    1
     5     3     6    1
     6     6     7    1
     7     6     8    1
     8     6     9    1
     9     9    10    1
    10     9    11    1
    11     9     1    1
    12     2    12    1
    13    12    13   ar
    14    13    14    1
    15    13    15   ar
    16    15    16    1
    17    15    17   ar
    18    17    18   ar
    19    18    19    1
    20    18    20   ar
    21    20    21    1
    22    20    12   ar
    23    17    22    1
    24    22    23    2
    25    22    24    2
    26    22    25    1
    27    25    26    1
    28    25    27    1
    29    25    28    1
    30     1    29    1
    31    29    30   ar
    32    30    31    1
    33    30    32   ar
    34    32    33   ar
    35    33    34   ar
    36    34    35    1
    37    34    36   ar
    38    36    37    1
    39    36    29   ar
    40    33    38    1
    41    38    39    1
    42    39    40    1
    43    39    41    1
    44    39    42    1
    45    32    43    1
