@<TRIPOS>MOLECULE
6_7p
 42 44 0 0 0
SMALL
USER_CHARGES
****
From 3DB ct
@<TRIPOS>ATOM
      1 C          26.3820   22.0720   16.4160 C.2     1  LIG1        0.0011
      2 C          25.4940   21.4970   17.2520 C.2     1  LIG1       -0.1197
      3 C          26.1770   20.9450   18.4740 C.3     1  LIG1       -0.0741
      4 H          25.8650   19.9280   18.7300 H       1  LIG1        0.0554
      5 H          25.9930   21.5970   19.3350 H       1  LIG1        0.0843
      6 C          27.6490   20.9610   18.0770 C.3     1  LIG1       -0.0833
      7 H          27.9330   19.9830   17.6660 H       1  LIG1        0.0598
      8 H          28.3060   21.1580   18.9300 H       1  LIG1        0.0440
      9 C          27.7700   22.0290   16.9960 C.3     1  LIG1       -0.1379
     10 H          28.0380   22.9980   17.4330 H       1  LIG1        0.0981
     11 H          28.5290   21.7470   16.2590 H       1  LIG1        0.0683
     12 C          24.0380   21.3850   17.1140 C.ar    1  LIG1        0.1831
     13 C          23.3290   22.2620   16.2780 C.ar    1  LIG1       -0.1975
     14 H          23.8550   23.0320   15.7150 H       1  LIG1        0.1542
     15 C          21.9390   22.1690   16.1560 C.ar    1  LIG1       -0.0423
     16 H          21.4140   22.8580   15.4990 H       1  LIG1        0.1961
     17 C          21.2470   21.2020   16.8870 C.ar    1  LIG1       -0.4920
     18 C          21.9340   20.3200   17.7220 C.ar    1  LIG1       -0.0191
     19 H          21.4050   19.5560   18.2880 H       1  LIG1        0.1779
     20 C          23.3250   20.4190   17.8380 C.ar    1  LIG1       -0.2670
     21 H          23.8450   19.7190   18.4900 H       1  LIG1        0.2086
     22 S          19.4810   21.0690   16.7220 S.O2    1  LIG1        2.1712
     23 O          18.9440   22.4140   16.5410 O.2     1  LIG1       -0.9647
     24 O          18.9860   20.2680   17.8370 O.2     1  LIG1       -0.9660
     25 C          19.2670   20.1570   15.2160 C.3     1  LIG1       -0.7153
     26 H          18.1960   20.0350   15.0440 H       1  LIG1        0.2378
     27 H          19.7410   19.1800   15.3210 H       1  LIG1        0.1889
     28 H          19.7130   20.7190   14.3930 H       1  LIG1        0.1860
     29 C          26.1560   22.7030   15.1090 C.ar    1  LIG1        0.2406
     30 C          26.4190   24.0640   14.9230 C.ar    1  LIG1       -0.4599
     31 H          26.7690   24.6870   15.7420 H       1  LIG1        0.2343
     32 C          26.2200   24.6550   13.6750 C.ar    1  LIG1        0.7146
     33 C          25.7670   23.9190   12.5840 C.ar    1  LIG1       -0.7391
     34 C          25.5150   22.5540   12.7610 C.ar    1  LIG1        0.0923
     35 H          25.1670   21.9430   11.9280 H       1  LIG1        0.1773
     36 C          25.7110   21.9530   14.0100 C.ar    1  LIG1       -0.3086
     37 H          25.5210   20.8850   14.1100 H       1  LIG1        0.1755
     38 C          25.5720   24.6040   11.2670 C.3     1  LIG1        1.5980
     39 F          25.1090   23.7820   10.2760 F       1  LIG1       -0.4788
     40 F          26.7230   25.1500   10.7690 F       1  LIG1       -0.4647
     41 F          24.6740   25.6340   11.3240 F       1  LIG1       -0.4670
     42 F          26.4750   25.9650   13.5370 F       1  LIG1       -0.3505
@<TRIPOS>BOND
     1     1     2    2
     2     2     3    1
     3     3     4    1
     4     3     5    1
     5     3     6    1
     6     6     7    1
     7     6     8    1
     8     6     9    1
     9     9    10    1
    10     9    11    1
    11     9     1    1
    12     2    12    1
    13    12    13   ar
    14    13    14    1
    15    13    15   ar
    16    15    16    1
    17    15    17   ar
    18    17    18   ar
    19    18    19    1
    20    18    20   ar
    21    20    21    1
    22    20    12   ar
    23    17    22    1
    24    22    23    2
    25    22    24    2
    26    22    25    1
    27    25    26    1
    28    25    27    1
    29    25    28    1
    30     1    29    1
    31    29    30   ar
    32    30    31    1
    33    30    32   ar
    34    32    33   ar
    35    33    34   ar
    36    34    35    1
    37    34    36   ar
    38    36    37    1
    39    36    29   ar
    40    33    38    1
    41    38    39    1
    42    38    40    1
    43    38    41    1
    44    32    42    1
