@<TRIPOS>MOLECULE
7_20i
 44 47 0 0 0
SMALL
USER_CHARGES
****
From 3DB ct
@<TRIPOS>ATOM
      1 C          26.5040   22.0610   16.4730 C.ar    1  LIG1        0.1143
      2 C          25.6050   21.4430   17.3880 C.ar    1  LIG1       -0.1991
      3 C          24.1500   21.3910   17.1570 C.ar    1  LIG1        0.3616
      4 C          23.5270   22.2880   16.2730 C.ar    1  LIG1       -0.2991
      5 H          24.1190   23.0380   15.7500 H       1  LIG1        0.2124
      6 C          22.1460   22.2410   16.0450 C.ar    1  LIG1       -0.0196
      7 H          21.7110   22.9550   15.3530 H       1  LIG1        0.1941
      8 C          21.3710   21.2940   16.7140 C.ar    1  LIG1       -0.5126
      9 C          21.9720   20.3910   17.5990 C.ar    1  LIG1       -0.0302
     10 H          21.3750   19.6450   18.1200 H       1  LIG1        0.1897
     11 C          23.3510   20.4450   17.8210 C.ar    1  LIG1       -0.3085
     12 H          23.8030   19.7350   18.5130 H       1  LIG1        0.2035
     13 S          19.6120   21.1820   16.4760 S.O2    1  LIG1        2.2011
     14 O          19.1670   22.4990   16.0320 O.2     1  LIG1       -0.9732
     15 O          19.0550   20.6200   17.7040 O.2     1  LIG1       -0.9752
     16 C          19.3190   20.0190   15.1740 C.3     1  LIG1       -0.7276
     17 H          18.2390   19.8940   15.0700 H       1  LIG1        0.2371
     18 H          19.7720   19.0610   15.4350 H       1  LIG1        0.1929
     19 H          19.7260   20.4080   14.2380 H       1  LIG1        0.1883
     20 C          26.1200   20.8690   18.5690 C.ar    1  LIG1       -0.2808
     21 H          25.4580   20.3930   19.2880 H       1  LIG1        0.2392
     22 C          27.4820   20.9130   18.8420 C.ar    1  LIG1        0.3301
     23 C          28.3540   21.5240   17.9570 C.ar    1  LIG1        0.3824
     24 C          27.8800   22.0940   16.7820 C.ar    1  LIG1       -0.3880
     25 H          28.5910   22.5600   16.1040 H       1  LIG1        0.2671
     26 F          29.6670   21.5660   18.2290 F       1  LIG1       -0.3130
     27 F          27.9470   20.3610   19.9720 F       1  LIG1       -0.3068
     28 C          26.0540   22.6590   15.2030 C.ar    1  LIG1        0.0415
     29 C          26.2750   24.0200   14.9340 C.ar    1  LIG1       -0.4163
     30 H          26.7800   24.6460   15.6690 H       1  LIG1        0.2597
     31 C          25.8540   24.5860   13.7290 C.ar    1  LIG1        0.2960
     32 C          25.1830   23.8050   12.7840 C.ar    1  LIG1        0.2377
     33 C          24.9730   22.4500   13.0270 C.ar    1  LIG1       -0.3119
     34 H          24.4620   21.8330   12.2920 H       1  LIG1        0.2227
     35 C          25.4080   21.8810   14.2270 C.ar    1  LIG1       -0.1463
     36 H          25.2330   20.8190   14.3990 H       1  LIG1        0.1668
     37 O          24.7130   24.3010   11.5970 O.3     1  LIG1       -0.4161
     38 C          24.6790   25.7370   11.5980 C.3     1  LIG1        0.0764
     39 H          23.8030   26.0610   12.1740 H       1  LIG1        0.0796
     40 H          24.5490   26.0660   10.5620 H       1  LIG1        0.0961
     41 C          25.9650   26.3070   12.1730 C.3     1  LIG1        0.0880
     42 H          26.8420   25.9660   11.6110 H       1  LIG1        0.0792
     43 H          25.9430   27.4010   12.1430 H       1  LIG1        0.0970
     44 O          26.1260   25.9180   13.5470 O.3     1  LIG1       -0.4300
@<TRIPOS>BOND
     1     1     2   ar
     2     2     3    1
     3     3     4   ar
     4     4     5    1
     5     4     6   ar
     6     6     7    1
     7     6     8   ar
     8     8     9   ar
     9     9    10    1
    10     9    11   ar
    11    11    12    1
    12    11     3   ar
    13     8    13    1
    14    13    14    2
    15    13    15    2
    16    13    16    1
    17    16    17    1
    18    16    18    1
    19    16    19    1
    20     2    20   ar
    21    20    21    1
    22    20    22   ar
    23    22    23   ar
    24    23    24   ar
    25    24    25    1
    26    24     1   ar
    27    23    26    1
    28    22    27    1
    29     1    28    1
    30    28    29   ar
    31    29    30    1
    32    29    31   ar
    33    31    32   ar
    34    32    33   ar
    35    33    34    1
    36    33    35   ar
    37    35    36    1
    38    35    28   ar
    39    32    37    1
    40    37    38    1
    41    38    39    1
    42    38    40    1
    43    38    41    1
    44    41    42    1
    45    41    43    1
    46    41    44    1
    47    44    31    1
