@<TRIPOS>MOLECULE
8_1ae
 37 39 0 0 0
SMALL
USER_CHARGES
****
From 3DB ct
@<TRIPOS>ATOM
      1 C          21.2480   21.1850   16.9490 C.ar    1  LIG1       -0.6272
      2 C          21.9650   20.3200   17.7750 C.ar    1  LIG1        0.0998
      3 H          21.4570   19.5570   18.3620 H       1  LIG1        0.1789
      4 C          23.3570   20.4350   17.8560 C.ar    1  LIG1       -0.2433
      5 H          23.8910   19.7440   18.5080 H       1  LIG1        0.1961
      6 C          24.0460   21.4010   17.0980 C.ar    1  LIG1        0.3218
      7 C          23.3090   22.2720   16.2840 C.ar    1  LIG1       -0.3781
      8 H          23.7720   23.0790   15.7260 H       1  LIG1        0.1957
      9 C          21.9160   22.1590   16.2020 C.ar    1  LIG1        0.1475
     10 H          21.3590   22.8440   15.5650 H       1  LIG1        0.1666
     11 N          25.4710   21.4880   17.2170 N.ar    1  LIG1        0.0954
     12 C          26.4130   22.1470   16.4230 C.ar    1  LIG1       -0.1005
     13 C          26.2100   22.7310   15.0980 C.ar    1  LIG1        0.2101
     14 C          26.4670   24.0910   14.8810 C.ar    1  LIG1        0.0962
     15 H          26.7930   24.7200   15.7070 H       1  LIG1        0.1031
     16 C          26.3000   24.6500   13.6090 C.ar    1  LIG1       -0.3203
     17 C          25.8830   23.8470   12.5410 C.ar    1  LIG1       -0.2694
     18 C          25.6400   22.4880   12.7500 C.ar    1  LIG1        0.1116
     19 H          25.3230   21.8500   11.9280 H       1  LIG1        0.1032
     20 C          25.8090   21.9310   14.0210 C.ar    1  LIG1       -0.2522
     21 H          25.6260   20.8660   14.1570 H       1  LIG1        0.1919
     22 CL         25.6560   24.4730   10.9460 Cl      1  LIG1        0.1100
     23 CL         26.6260   26.3380   13.4220 Cl      1  LIG1        0.1138
     24 C          27.6080   22.0660   17.1140 C.ar    1  LIG1       -0.2954
     25 H          28.5590   22.4830   16.8060 H       1  LIG1        0.2371
     26 C          27.3630   21.2650   18.2480 C.ar    1  LIG1       -0.1511
     27 N          26.0780   20.8660   18.2770 N.ar    1  LIG1       -0.3000
     28 C          28.3700   20.8500   19.2870 C.3     1  LIG1        1.4539
     29 F          29.5640   21.5000   19.1580 F       1  LIG1       -0.4447
     30 F          28.6560   19.5150   19.2300 F       1  LIG1       -0.4350
     31 F          27.9410   21.0960   20.5610 F       1  LIG1       -0.4383
     32 S          19.4880   21.0410   16.8130 S.O2    1  LIG1        2.3943
     33 O          18.9330   22.2990   16.3460 O.2     1  LIG1       -0.9761
     34 O          18.9740   20.4090   18.0150 O.2     1  LIG1       -0.9724
     35 N          19.3190   19.9420   15.5600 N.3     1  LIG1       -1.3046
     36 H          18.8340   20.3630   14.7640 H       1  LIG1        0.4891
     37 H          18.8480   19.0900   15.8760 H       1  LIG1        0.4925
@<TRIPOS>BOND
     1     1     2   ar
     2     2     3    1
     3     2     4   ar
     4     4     5    1
     5     4     6   ar
     6     6     7   ar
     7     7     8    1
     8     7     9   ar
     9     9    10    1
    10     9     1   ar
    11     6    11    1
    12    11    12   ar
    13    12    13    1
    14    13    14   ar
    15    14    15    1
    16    14    16   ar
    17    16    17   ar
    18    17    18   ar
    19    18    19    1
    20    18    20   ar
    21    20    21    1
    22    20    13   ar
    23    17    22    1
    24    16    23    1
    25    12    24   ar
    26    24    25    1
    27    24    26   ar
    28    26    27   ar
    29    27    11   ar
    30    26    28    1
    31    28    29    1
    32    28    30    1
    33    28    31    1
    34     1    32    1
    35    32    33    2
    36    32    34    2
    37    32    35    1
    38    35    36    1
    39    35    37    1
