@<TRIPOS>MOLECULE
8_1as
 42 45 0 0 0
SMALL
USER_CHARGES
****
From 3DB ct
@<TRIPOS>ATOM
      1 C          21.2610   21.1750   16.9080 C.ar    1  LIG1       -0.6148
      2 C          21.9710   20.3190   17.7500 C.ar    1  LIG1        0.0591
      3 H          21.4590   19.5570   18.3340 H       1  LIG1        0.1884
      4 C          23.3630   20.4360   17.8410 C.ar    1  LIG1       -0.2161
      5 H          23.8930   19.7470   18.4980 H       1  LIG1        0.1888
      6 C          24.0560   21.4030   17.0880 C.ar    1  LIG1        0.3381
      7 C          23.3240   22.2730   16.2700 C.ar    1  LIG1       -0.2812
      8 H          23.7900   23.0820   15.7160 H       1  LIG1        0.1691
      9 C          21.9310   22.1590   16.1770 C.ar    1  LIG1        0.0724
     10 H          21.3790   22.8450   15.5380 H       1  LIG1        0.1853
     11 N          25.4810   21.4900   17.2160 N.ar    1  LIG1       -0.0611
     12 C          26.4270   22.1480   16.4290 C.ar    1  LIG1        0.2903
     13 C          26.2310   22.7340   15.1040 C.ar    1  LIG1       -0.2376
     14 C          25.7650   21.9300   14.0410 C.ar    1  LIG1        0.0292
     15 H          25.5720   20.8690   14.2010 H       1  LIG1        0.1570
     16 C          25.5570   22.4700   12.7680 C.ar    1  LIG1       -0.4705
     17 H          25.2100   21.8480   11.9490 H       1  LIG1        0.2504
     18 C          25.8020   23.8150   12.5900 C.ar    1  LIG1        0.4979
     19 C          26.2470   24.6210   13.6250 C.ar    1  LIG1       -0.0988
     20 C          26.4660   24.1020   14.8900 C.ar    1  LIG1       -0.1360
     21 H          26.8200   24.7450   15.6930 H       1  LIG1        0.2015
     22 C          26.4830   25.9910   13.1150 C.3     1  LIG1       -0.2424
     23 H          27.5540   26.1620   12.9690 H       1  LIG1        0.1112
     24 H          26.0600   26.7770   13.7460 H       1  LIG1        0.1147
     25 C          25.7530   25.8800   11.7760 C.3     1  LIG1        0.1874
     26 H          24.7330   26.2770   11.8470 H       1  LIG1        0.0367
     27 H          26.2760   26.4270   10.9850 H       1  LIG1        0.0745
     28 O          25.6530   24.4790   11.4010 O.3     1  LIG1       -0.4500
     29 C          27.6190   22.0640   17.1260 C.ar    1  LIG1       -0.4456
     30 H          28.5720   22.4800   16.8230 H       1  LIG1        0.2818
     31 C          27.3660   21.2640   18.2580 C.ar    1  LIG1       -0.1731
     32 N          26.0800   20.8680   18.2800 N.ar    1  LIG1       -0.2779
     33 C          28.3660   20.8470   19.3030 C.3     1  LIG1        1.5134
     34 F          29.5790   21.4570   19.1490 F       1  LIG1       -0.4610
     35 F          28.6110   19.5030   19.2820 F       1  LIG1       -0.4503
     36 F          27.9530   21.1420   20.5710 F       1  LIG1       -0.4543
     37 S          19.4950   21.0620   16.8110 S.O2    1  LIG1        2.4351
     38 O          18.9590   22.3470   16.3970 O.2     1  LIG1       -0.9924
     39 O          18.9870   20.4010   18.0000 O.2     1  LIG1       -0.9868
     40 N          19.2820   20.0000   15.5330 N.3     1  LIG1       -1.3058
     41 H          18.7830   20.4480   14.7600 H       1  LIG1        0.4851
     42 H          18.8070   19.1460   15.8390 H       1  LIG1        0.4884
@<TRIPOS>BOND
     1     1     2   ar
     2     2     3    1
     3     2     4   ar
     4     4     5    1
     5     4     6   ar
     6     6     7   ar
     7     7     8    1
     8     7     9   ar
     9     9    10    1
    10     9     1   ar
    11     6    11    1
    12    11    12   ar
    13    12    13    1
    14    13    14   ar
    15    14    15    1
    16    14    16   ar
    17    16    17    1
    18    16    18   ar
    19    18    19   ar
    20    19    20   ar
    21    20    21    1
    22    20    13   ar
    23    19    22    1
    24    22    23    1
    25    22    24    1
    26    22    25    1
    27    25    26    1
    28    25    27    1
    29    25    28    1
    30    28    18    1
    31    12    29   ar
    32    29    30    1
    33    29    31   ar
    34    31    32   ar
    35    32    11   ar
    36    31    33    1
    37    33    34    1
    38    33    35    1
    39    33    36    1
    40     1    37    1
    41    37    38    2
    42    37    39    2
    43    37    40    1
    44    40    41    1
    45    40    42    1
