@<TRIPOS>MOLECULE
8_1b
 37 39 0 0 0
SMALL
USER_CHARGES
****
From 3DB ct
@<TRIPOS>ATOM
      1 C          21.2480   21.1840   16.9450 C.ar    1  LIG1       -0.6275
      2 C          21.9650   20.3200   17.7720 C.ar    1  LIG1        0.0743
      3 H          21.4590   19.5570   18.3590 H       1  LIG1        0.1860
      4 C          23.3570   20.4390   17.8540 C.ar    1  LIG1       -0.2368
      5 H          23.8920   19.7490   18.5070 H       1  LIG1        0.1947
      6 C          24.0470   21.4080   17.0990 C.ar    1  LIG1        0.3773
      7 C          23.3080   22.2750   16.2820 C.ar    1  LIG1       -0.3515
      8 H          23.7660   23.0820   15.7220 H       1  LIG1        0.1890
      9 C          21.9140   22.1580   16.1980 C.ar    1  LIG1        0.1191
     10 H          21.3570   22.8420   15.5600 H       1  LIG1        0.1743
     11 N          25.4720   21.4950   17.2190 N.ar    1  LIG1       -0.0541
     12 C          26.4180   22.1410   16.4230 C.ar    1  LIG1        0.2711
     13 C          26.2140   22.7310   15.1010 C.ar    1  LIG1       -0.3064
     14 C          26.4670   24.0900   14.8710 C.ar    1  LIG1        0.6135
     15 C          26.2920   24.6530   13.6100 C.ar    1  LIG1       -0.3974
     16 H          26.4880   25.7110   13.4590 H       1  LIG1        0.2307
     17 C          25.8670   23.8550   12.5500 C.ar    1  LIG1       -0.0062
     18 H          25.7280   24.2890   11.5610 H       1  LIG1        0.1603
     19 C          25.6240   22.4960   12.7560 C.ar    1  LIG1       -0.2508
     20 H          25.2980   21.8700   11.9260 H       1  LIG1        0.1804
     21 C          25.8020   21.9340   14.0240 C.ar    1  LIG1       -0.0226
     22 H          25.6150   20.8700   14.1600 H       1  LIG1        0.1617
     23 F          26.8720   24.8810   15.8770 F       1  LIG1       -0.3667
     24 C          27.6170   22.0440   17.1060 C.ar    1  LIG1       -0.4233
     25 H          28.5720   22.4480   16.7920 H       1  LIG1        0.2822
     26 C          27.3650   21.2570   18.2480 C.ar    1  LIG1       -0.1527
     27 N          26.0740   20.8780   18.2860 N.ar    1  LIG1       -0.2851
     28 C          28.3700   20.8380   19.2870 C.3     1  LIG1        1.5063
     29 F          27.9430   21.0860   20.5610 F       1  LIG1       -0.4529
     30 F          29.5680   21.4820   19.1570 F       1  LIG1       -0.4569
     31 F          28.6500   19.5010   19.2300 F       1  LIG1       -0.4512
     32 S          19.4880   21.0350   16.8090 S.O2    1  LIG1        2.4199
     33 O          18.9290   22.2960   16.3550 O.2     1  LIG1       -0.9869
     34 O          18.9750   20.3890   18.0040 O.2     1  LIG1       -0.9812
     35 N          19.3240   19.9480   15.5450 N.3     1  LIG1       -1.3039
     36 H          18.8360   20.3750   14.7530 H       1  LIG1        0.4850
     37 H          18.8580   19.0910   15.8530 H       1  LIG1        0.4884
@<TRIPOS>BOND
     1     1     2   ar
     2     2     3    1
     3     2     4   ar
     4     4     5    1
     5     4     6   ar
     6     6     7   ar
     7     7     8    1
     8     7     9   ar
     9     9    10    1
    10     9     1   ar
    11     6    11    1
    12    11    12   ar
    13    12    13    1
    14    13    14   ar
    15    14    15   ar
    16    15    16    1
    17    15    17   ar
    18    17    18    1
    19    17    19   ar
    20    19    20    1
    21    19    21   ar
    22    21    22    1
    23    21    13   ar
    24    14    23    1
    25    12    24   ar
    26    24    25    1
    27    24    26   ar
    28    26    27   ar
    29    27    11   ar
    30    26    28    1
    31    28    29    1
    32    28    30    1
    33    28    31    1
    34     1    32    1
    35    32    33    2
    36    32    34    2
    37    32    35    1
    38    35    36    1
    39    35    37    1
