@<TRIPOS>MOLECULE
8_1w
 39 41 0 0 0
SMALL
USER_CHARGES
****
From 3DB ct
@<TRIPOS>ATOM
      1 C          21.2510   21.1870   16.9450 C.ar    1  LIG1       -0.6337
      2 C          21.9660   20.3220   17.7730 C.ar    1  LIG1        0.0885
      3 H          21.4570   19.5600   18.3600 H       1  LIG1        0.1598
      4 C          23.3580   20.4380   17.8560 C.ar    1  LIG1       -0.2483
      5 H          23.8920   19.7480   18.5090 H       1  LIG1        0.1843
      6 C          24.0480   21.4040   17.0990 C.ar    1  LIG1        0.3421
      7 C          23.3120   22.2740   16.2840 C.ar    1  LIG1       -0.2628
      8 H          23.7760   23.0810   15.7260 H       1  LIG1        0.1936
      9 C          21.9190   22.1610   16.2000 C.ar    1  LIG1        0.0707
     10 H          21.3630   22.8460   15.5620 H       1  LIG1        0.1909
     11 N          25.4730   21.4890   17.2180 N.ar    1  LIG1       -0.0120
     12 C          26.4160   22.1450   16.4230 C.ar    1  LIG1        0.2511
     13 C          26.2100   22.7280   15.1000 C.ar    1  LIG1       -0.1773
     14 C          26.4680   24.0870   14.8810 C.ar    1  LIG1       -0.0907
     15 H          26.8020   24.7250   15.6980 H       1  LIG1        0.1173
     16 C          26.2900   24.6490   13.6120 C.ar    1  LIG1       -0.2548
     17 H          26.4900   25.7090   13.4750 H       1  LIG1        0.1955
     18 C          25.8620   23.8530   12.5420 C.ar    1  LIG1        0.1766
     19 C          25.6210   22.4900   12.7540 C.ar    1  LIG1       -0.2634
     20 H          25.2940   21.8510   11.9350 H       1  LIG1        0.1993
     21 C          25.7990   21.9300   14.0240 C.ar    1  LIG1       -0.1234
     22 H          25.6130   20.8660   14.1620 H       1  LIG1        0.1263
     23 C          25.6580   24.4050   11.1770 C.2     1  LIG1        0.6983
     24 O          25.2980   23.7700   10.2000 O.co2   1  LIG1       -0.9374
     25 O          25.9160   25.7250   11.1130 O.co2   1  LIG1       -0.9372
     26 C          27.6120   22.0610   17.1130 C.ar    1  LIG1       -0.4462
     27 H          28.5630   22.4770   16.8040 H       1  LIG1        0.2643
     28 C          27.3650   21.2630   18.2480 C.ar    1  LIG1       -0.1678
     29 N          26.0790   20.8680   18.2790 N.ar    1  LIG1       -0.3320
     30 C          28.3730   20.8460   19.2860 C.3     1  LIG1        1.4949
     31 F          29.5520   21.5270   19.1830 F       1  LIG1       -0.4593
     32 F          28.6900   19.5200   19.1980 F       1  LIG1       -0.4539
     33 F          27.9280   21.0490   20.5620 F       1  LIG1       -0.4625
     34 S          19.4910   21.0410   16.8060 S.O2    1  LIG1        2.4230
     35 O          18.9360   22.2980   16.3370 O.2     1  LIG1       -0.9974
     36 O          18.9740   20.4080   18.0060 O.2     1  LIG1       -0.9987
     37 N          19.3270   19.9420   15.5520 N.3     1  LIG1       -1.3233
     38 H          18.8410   20.3620   14.7560 H       1  LIG1        0.4969
     39 H          18.8570   19.0900   15.8680 H       1  LIG1        0.4865
@<TRIPOS>BOND
     1     1     2   ar
     2     2     3    1
     3     2     4   ar
     4     4     5    1
     5     4     6   ar
     6     6     7   ar
     7     7     8    1
     8     7     9   ar
     9     9    10    1
    10     9     1   ar
    11     6    11    1
    12    11    12   ar
    13    12    13    1
    14    13    14   ar
    15    14    15    1
    16    14    16   ar
    17    16    17    1
    18    16    18   ar
    19    18    19   ar
    20    19    20    1
    21    19    21   ar
    22    21    22    1
    23    21    13   ar
    24    18    23    1
    25    23    24   ar
    26    23    25   ar
    27    12    26   ar
    28    26    27    1
    29    26    28   ar
    30    28    29   ar
    31    29    11   ar
    32    28    30    1
    33    30    31    1
    34    30    32    1
    35    30    33    1
    36     1    34    1
    37    34    35    2
    38    34    36    2
    39    34    37    1
    40    37    38    1
    41    37    39    1
