@<TRIPOS>MOLECULE
8_20b
 37 39 0 0 0
SMALL
USER_CHARGES
****
From 3DB ct
@<TRIPOS>ATOM
      1 C          21.2510   21.1830   16.9390 C.ar    1  LIG1       -0.6370
      2 C          21.9690   20.3220   17.7670 C.ar    1  LIG1        0.0431
      3 H          21.4630   19.5580   18.3540 H       1  LIG1        0.1875
      4 C          23.3610   20.4440   17.8510 C.ar    1  LIG1       -0.2287
      5 H          23.8940   19.7550   18.5050 H       1  LIG1        0.1983
      6 C          24.0500   21.4140   17.0970 C.ar    1  LIG1        0.4956
      7 C          23.3100   22.2780   16.2780 C.ar    1  LIG1       -0.4447
      8 H          23.7660   23.0840   15.7150 H       1  LIG1        0.2238
      9 C          21.9160   22.1580   16.1930 C.ar    1  LIG1        0.1456
     10 H          21.3590   22.8400   15.5530 H       1  LIG1        0.1689
     11 N          25.4770   21.5020   17.2210 N.ar    1  LIG1       -0.2890
     12 C          26.4290   22.1400   16.4200 C.ar    1  LIG1        0.6872
     13 C          26.2120   22.7310   15.1010 C.ar    1  LIG1       -0.1970
     14 C          26.4680   24.0920   14.8830 C.ar    1  LIG1       -0.1558
     15 H          26.8110   24.7280   15.6970 H       1  LIG1        0.1624
     16 C          26.2760   24.6510   13.6180 C.ar    1  LIG1       -0.0868
     17 H          26.4700   25.7100   13.4570 H       1  LIG1        0.1426
     18 C          25.8370   23.8550   12.5610 C.ar    1  LIG1       -0.1345
     19 H          25.6880   24.2930   11.5760 H       1  LIG1        0.1505
     20 C          25.5940   22.4970   12.7660 C.ar    1  LIG1       -0.1274
     21 H          25.2570   21.8750   11.9390 H       1  LIG1        0.1491
     22 C          25.7850   21.9350   14.0290 C.ar    1  LIG1       -0.1060
     23 H          25.5970   20.8710   14.1690 H       1  LIG1        0.1435
     24 C          27.6280   22.0180   17.1000 C.ar    1  LIG1       -1.0514
     25 C          27.3550   21.2490   18.2450 C.ar    1  LIG1        0.7285
     26 N          26.0690   20.8920   18.3000 N.ar    1  LIG1       -0.4712
     27 C          28.3020   20.8050   19.2980 C.3     1  LIG1       -0.4380
     28 H          28.7950   21.6670   19.7580 H       1  LIG1        0.1147
     29 H          29.0700   20.1530   18.8700 H       1  LIG1        0.1156
     30 H          27.7900   20.2490   20.0900 H       1  LIG1        0.1437
     31 CL         29.1600   22.6040   16.6440 Cl      1  LIG1        0.2535
     32 S          19.4920   21.0320   16.8000 S.O2    1  LIG1        2.4328
     33 O          18.9330   22.2870   16.3290 O.2     1  LIG1       -0.9957
     34 O          18.9770   20.4000   18.0010 O.2     1  LIG1       -0.9882
     35 N          19.3310   19.9310   15.5470 N.3     1  LIG1       -1.3072
     36 H          18.8460   20.3490   14.7490 H       1  LIG1        0.4834
     37 H          18.8630   19.0780   15.8630 H       1  LIG1        0.4885
@<TRIPOS>BOND
     1     1     2   ar
     2     2     3    1
     3     2     4   ar
     4     4     5    1
     5     4     6   ar
     6     6     7   ar
     7     7     8    1
     8     7     9   ar
     9     9    10    1
    10     9     1   ar
    11     6    11    1
    12    11    12   ar
    13    12    13    1
    14    13    14   ar
    15    14    15    1
    16    14    16   ar
    17    16    17    1
    18    16    18   ar
    19    18    19    1
    20    18    20   ar
    21    20    21    1
    22    20    22   ar
    23    22    23    1
    24    22    13   ar
    25    12    24   ar
    26    24    25   ar
    27    25    26   ar
    28    26    11   ar
    29    25    27    1
    30    27    28    1
    31    27    29    1
    32    27    30    1
    33    24    31    1
    34     1    32    1
    35    32    33    2
    36    32    34    2
    37    32    35    1
    38    35    36    1
    39    35    37    1
