@<TRIPOS>MOLECULE
8_24
 37 39 0 0 0
SMALL
USER_CHARGES
****
From 3DB ct
@<TRIPOS>ATOM
      1 C          21.2500   21.1820   16.9490 C.ar    1  LIG1       -0.6293
      2 C          21.9670   20.3180   17.7760 C.ar    1  LIG1        0.0946
      3 H          21.4610   19.5550   18.3630 H       1  LIG1        0.1832
      4 C          23.3600   20.4360   17.8560 C.ar    1  LIG1       -0.2557
      5 H          23.8940   19.7460   18.5080 H       1  LIG1        0.1972
      6 C          24.0480   21.4040   17.0990 C.ar    1  LIG1        0.3511
      7 C          23.3090   22.2730   16.2840 C.ar    1  LIG1       -0.3284
      8 H          23.7690   23.0790   15.7230 H       1  LIG1        0.1856
      9 C          21.9160   22.1570   16.2020 C.ar    1  LIG1        0.1159
     10 H          21.3580   22.8400   15.5640 H       1  LIG1        0.1763
     11 N          25.4740   21.4930   17.2170 N.ar    1  LIG1        0.0453
     12 C          26.4150   22.1460   16.4150 C.ar    1  LIG1       -0.2441
     13 C          26.2150   22.7320   15.0940 C.ar    1  LIG1        0.2733
     14 C          26.4740   24.0920   14.8790 C.ar    1  LIG1       -0.2037
     15 H          26.8050   24.7290   15.6980 H       1  LIG1        0.1878
     16 C          26.3000   24.6530   13.6110 C.ar    1  LIG1       -0.1475
     17 H          26.4960   25.7120   13.4540 H       1  LIG1        0.1627
     18 C          25.8780   23.8570   12.5480 C.ar    1  LIG1       -0.0980
     19 H          25.7430   24.2950   11.5600 H       1  LIG1        0.1525
     20 C          25.6340   22.4990   12.7480 C.ar    1  LIG1       -0.1565
     21 H          25.3110   21.8760   11.9150 H       1  LIG1        0.1635
     22 C          25.8070   21.9360   14.0140 C.ar    1  LIG1       -0.2321
     23 H          25.6200   20.8720   14.1480 H       1  LIG1        0.1842
     24 C          27.5950   22.0460   17.1150 C.ar    1  LIG1        0.3839
     25 C          27.3660   21.2690   18.2510 C.ar    1  LIG1       -0.3992
     26 N          26.0770   20.8760   18.2910 N.ar    1  LIG1       -0.2148
     27 C          28.3940   20.8830   19.2640 C.3     1  LIG1        1.6265
     28 F          29.0870   21.9600   19.7400 F       1  LIG1       -0.4710
     29 F          29.3260   20.0240   18.7550 F       1  LIG1       -0.4645
     30 F          27.8650   20.2610   20.3600 F       1  LIG1       -0.4694
     31 F          28.7460   22.5400   16.7410 F       1  LIG1       -0.2959
     32 S          19.4890   21.0370   16.8130 S.O2    1  LIG1        2.4161
     33 O          18.9330   22.2950   16.3460 O.2     1  LIG1       -0.9838
     34 O          18.9770   20.4040   18.0150 O.2     1  LIG1       -0.9795
     35 N          19.3210   19.9400   15.5590 N.3     1  LIG1       -1.3013
     36 H          18.8360   20.3620   14.7630 H       1  LIG1        0.4861
     37 H          18.8490   19.0880   15.8750 H       1  LIG1        0.4892
@<TRIPOS>BOND
     1     1     2   ar
     2     2     3    1
     3     2     4   ar
     4     4     5    1
     5     4     6   ar
     6     6     7   ar
     7     7     8    1
     8     7     9   ar
     9     9    10    1
    10     9     1   ar
    11     6    11    1
    12    11    12   ar
    13    12    13    1
    14    13    14   ar
    15    14    15    1
    16    14    16   ar
    17    16    17    1
    18    16    18   ar
    19    18    19    1
    20    18    20   ar
    21    20    21    1
    22    20    22   ar
    23    22    23    1
    24    22    13   ar
    25    12    24   ar
    26    24    25   ar
    27    25    26   ar
    28    26    11   ar
    29    25    27    1
    30    27    28    1
    31    27    29    1
    32    27    30    1
    33    24    31    1
    34     1    32    1
    35    32    33    2
    36    32    34    2
    37    32    35    1
    38    35    36    1
    39    35    37    1
