@<TRIPOS>MOLECULE
9_38
 47 50 0 0 0
SMALL
USER_CHARGES
****
From 3DB ct
@<TRIPOS>ATOM
      1 C          26.3840   22.0820   16.4210 C.2     1  LIG1       -0.0597
      2 C          25.4930   21.5010   17.2540 C.2     1  LIG1       -0.1971
      3 C          26.1790   20.9240   18.4750 C.3     1  LIG1       -0.0552
      4 H          26.0540   19.8370   18.5210 H       1  LIG1        0.0712
      5 H          25.7740   21.3720   19.3890 H       1  LIG1        0.0702
      6 C          27.6410   21.2770   18.3010 C.3     1  LIG1        0.0285
      7 C          27.7850   22.0290   16.9950 C.3     1  LIG1       -0.0728
      8 H          28.1750   23.0360   17.1780 H       1  LIG1        0.0696
      9 H          28.4580   21.5000   16.3120 H       1  LIG1        0.0722
     10 C          28.7260   20.3360   18.7760 C.3     1  LIG1       -0.3168
     11 H          29.6270   20.2400   18.1780 H       1  LIG1        0.1486
     12 H          28.4360   19.4190   19.2770 H       1  LIG1        0.1481
     13 C          28.4980   21.6310   19.4970 C.3     1  LIG1       -0.3084
     14 H          28.0540   21.5890   20.4850 H       1  LIG1        0.1480
     15 H          29.2460   22.4090   19.3880 H       1  LIG1        0.1468
     16 C          24.0350   21.3870   17.1140 C.ar    1  LIG1        0.3117
     17 C          23.3250   22.2640   16.2800 C.ar    1  LIG1       -0.2639
     18 H          23.8480   23.0370   15.7190 H       1  LIG1        0.1761
     19 C          21.9350   22.1700   16.1570 C.ar    1  LIG1       -0.0235
     20 H          21.4090   22.8590   15.5000 H       1  LIG1        0.1910
     21 C          21.2430   21.2010   16.8860 C.ar    1  LIG1       -0.5259
     22 C          21.9310   20.3200   17.7220 C.ar    1  LIG1        0.0023
     23 H          21.4030   19.5560   18.2880 H       1  LIG1        0.1779
     24 C          23.3220   20.4200   17.8380 C.ar    1  LIG1       -0.3030
     25 H          23.8400   19.7200   18.4910 H       1  LIG1        0.1957
     26 S          19.4780   21.0700   16.7170 S.O2    1  LIG1        2.1864
     27 O          18.9410   22.4130   16.5240 O.2     1  LIG1       -0.9703
     28 O          18.9800   20.2780   17.8380 O.2     1  LIG1       -0.9725
     29 C          19.2670   20.1470   15.2180 C.3     1  LIG1       -0.7273
     30 H          18.1960   20.0240   15.0430 H       1  LIG1        0.2370
     31 H          19.7380   19.1690   15.3320 H       1  LIG1        0.1903
     32 H          19.7170   20.7010   14.3930 H       1  LIG1        0.1890
     33 C          26.1560   22.7050   15.1110 C.ar    1  LIG1        0.0806
     34 C          26.4130   24.0660   14.9100 C.ar    1  LIG1       -0.1311
     35 H          26.7580   24.6930   15.7310 H       1  LIG1        0.1875
     36 C          26.2150   24.6630   13.6560 C.ar    1  LIG1       -0.3775
     37 H          26.4270   25.7260   13.5730 H       1  LIG1        0.2195
     38 C          25.7640   23.9020   12.5790 C.ar    1  LIG1        0.4122
     39 C          25.5150   22.5410   12.7720 C.ar    1  LIG1       -0.2927
     40 H          25.1660   21.9260   11.9440 H       1  LIG1        0.2210
     41 C          25.7120   21.9470   14.0230 C.ar    1  LIG1       -0.1378
     42 H          25.5210   20.8800   14.1310 H       1  LIG1        0.1603
     43 O          25.5300   24.3480   11.3110 O.3     1  LIG1       -0.6364
     44 C          25.7700   25.7210   11.0390 C.3     1  LIG1        1.6821
     45 F          25.4850   25.9610    9.7340 F       1  LIG1       -0.4317
     46 F          27.0680   26.0440   11.2450 F       1  LIG1       -0.4595
     47 F          24.9750   26.5180   11.7900 F       1  LIG1       -0.4608
@<TRIPOS>BOND
     1     1     2    2
     2     2     3    1
     3     3     4    1
     4     3     5    1
     5     3     6    1
     6     6     7    1
     7     7     8    1
     8     7     9    1
     9     7     1    1
    10     6    10    1
    11    10    11    1
    12    10    12    1
    13    10    13    1
    14    13    14    1
    15    13    15    1
    16    13     6    1
    17     2    16    1
    18    16    17   ar
    19    17    18    1
    20    17    19   ar
    21    19    20    1
    22    19    21   ar
    23    21    22   ar
    24    22    23    1
    25    22    24   ar
    26    24    25    1
    27    24    16   ar
    28    21    26    1
    29    26    27    2
    30    26    28    2
    31    26    29    1
    32    29    30    1
    33    29    31    1
    34    29    32    1
    35     1    33    1
    36    33    34   ar
    37    34    35    1
    38    34    36   ar
    39    36    37    1
    40    36    38   ar
    41    38    39   ar
    42    39    40    1
    43    39    41   ar
    44    41    42    1
    45    41    33   ar
    46    38    43    1
    47    43    44    1
    48    44    45    1
    49    44    46    1
    50    44    47    1
