@<TRIPOS>MOLECULE
9_39
 46 49 0 0 0
SMALL
USER_CHARGES
****
From 3DB ct
@<TRIPOS>ATOM
      1 C          26.3850   22.0810   16.4200 C.2     1  LIG1       -0.0314
      2 C          25.4930   21.5010   17.2540 C.2     1  LIG1       -0.2426
      3 C          26.1790   20.9250   18.4750 C.3     1  LIG1       -0.0693
      4 H          26.0560   19.8380   18.5220 H       1  LIG1        0.0765
      5 H          25.7730   21.3740   19.3890 H       1  LIG1        0.0686
      6 C          27.6410   21.2810   18.3020 C.3     1  LIG1        0.0453
      7 C          27.7850   22.0280   16.9940 C.3     1  LIG1       -0.0751
      8 H          28.1770   23.0350   17.1720 H       1  LIG1        0.0705
      9 H          28.4570   21.4950   16.3120 H       1  LIG1        0.0689
     10 C          28.7280   20.3440   18.7830 C.3     1  LIG1       -0.3133
     11 H          29.6290   20.2470   18.1870 H       1  LIG1        0.1477
     12 H          28.4380   19.4290   19.2880 H       1  LIG1        0.1451
     13 C          28.4960   21.6420   19.4980 C.3     1  LIG1       -0.3131
     14 H          28.0490   21.6030   20.4850 H       1  LIG1        0.1498
     15 H          29.2410   22.4220   19.3860 H       1  LIG1        0.1454
     16 C          24.0350   21.3870   17.1150 C.ar    1  LIG1        0.4079
     17 C          23.3230   22.2650   16.2820 C.ar    1  LIG1       -0.3328
     18 H          23.8450   23.0390   15.7220 H       1  LIG1        0.1845
     19 C          21.9330   22.1710   16.1620 C.ar    1  LIG1        0.0786
     20 H          21.4030   22.8600   15.5090 H       1  LIG1        0.1781
     21 C          21.2400   21.2020   16.8900 C.ar    1  LIG1       -0.6384
     22 C          21.9300   20.3220   17.7270 C.ar    1  LIG1        0.0693
     23 H          21.4010   19.5600   18.2950 H       1  LIG1        0.1776
     24 C          23.3210   20.4220   17.8410 C.ar    1  LIG1       -0.3419
     25 H          23.8400   19.7220   18.4950 H       1  LIG1        0.1963
     26 S          19.4830   21.0670   16.7090 S.O2    1  LIG1        2.4667
     27 O          18.9250   22.3760   16.4180 O.2     1  LIG1       -1.0004
     28 O          18.9560   20.2670   17.8000 O.2     1  LIG1       -1.0027
     29 N          19.3400   20.1580   15.3100 N.3     1  LIG1       -1.3146
     30 H          18.8620   20.6860   14.5750 H       1  LIG1        0.4832
     31 H          18.8710   19.2680   15.4950 H       1  LIG1        0.4863
     32 C          26.1560   22.7040   15.1110 C.ar    1  LIG1        0.0546
     33 C          26.4140   24.0650   14.9100 C.ar    1  LIG1       -0.1169
     34 H          26.7610   24.6900   15.7320 H       1  LIG1        0.1819
     35 C          26.2140   24.6640   13.6580 C.ar    1  LIG1       -0.3849
     36 H          26.4270   25.7270   13.5750 H       1  LIG1        0.2199
     37 C          25.7600   23.9050   12.5810 C.ar    1  LIG1        0.4114
     38 C          25.5110   22.5430   12.7730 C.ar    1  LIG1       -0.2910
     39 H          25.1600   21.9300   11.9440 H       1  LIG1        0.2207
     40 C          25.7100   21.9470   14.0220 C.ar    1  LIG1       -0.1214
     41 H          25.5180   20.8810   14.1300 H       1  LIG1        0.1601
     42 O          25.5220   24.3520   11.3140 O.3     1  LIG1       -0.6327
     43 C          25.7570   25.7260   11.0440 C.3     1  LIG1        1.6809
     44 F          25.4650   25.9680    9.7410 F       1  LIG1       -0.4321
     45 F          27.0560   26.0530   11.2440 F       1  LIG1       -0.4604
     46 F          24.9650   26.5200   11.8010 F       1  LIG1       -0.4604
@<TRIPOS>BOND
     1     1     2    2
     2     2     3    1
     3     3     4    1
     4     3     5    1
     5     3     6    1
     6     6     7    1
     7     7     8    1
     8     7     9    1
     9     7     1    1
    10     6    10    1
    11    10    11    1
    12    10    12    1
    13    10    13    1
    14    13    14    1
    15    13    15    1
    16    13     6    1
    17     2    16    1
    18    16    17   ar
    19    17    18    1
    20    17    19   ar
    21    19    20    1
    22    19    21   ar
    23    21    22   ar
    24    22    23    1
    25    22    24   ar
    26    24    25    1
    27    24    16   ar
    28    21    26    1
    29    26    27    2
    30    26    28    2
    31    26    29    1
    32    29    30    1
    33    29    31    1
    34     1    32    1
    35    32    33   ar
    36    33    34    1
    37    33    35   ar
    38    35    36    1
    39    35    37   ar
    40    37    38   ar
    41    38    39    1
    42    38    40   ar
    43    40    41    1
    44    40    32   ar
    45    37    42    1
    46    42    43    1
    47    43    44    1
    48    43    45    1
    49    43    46    1
