@<TRIPOS>MOLECULE
9_46
 46 50 0 0 0
SMALL
USER_CHARGES
****
From 3DB ct
@<TRIPOS>ATOM
      1 C          26.3880   22.0870   16.4220 C.2     1  LIG1        0.0332
      2 C          25.4960   21.5040   17.2530 C.2     1  LIG1       -0.2579
      3 C          26.1820   20.9220   18.4700 C.3     1  LIG1       -0.0430
      4 H          26.0550   19.8350   18.5140 H       1  LIG1        0.0734
      5 H          25.7800   21.3680   19.3860 H       1  LIG1        0.0760
      6 C          27.6450   21.2730   18.2960 C.3     1  LIG1       -0.0376
      7 C          27.7890   22.0300   16.9930 C.3     1  LIG1       -0.0098
      8 H          28.1810   23.0350   17.1780 H       1  LIG1        0.0589
      9 H          28.4600   21.5020   16.3070 H       1  LIG1        0.0617
     10 C          28.7290   20.3260   18.7650 C.3     1  LIG1       -0.3214
     11 H          29.6280   20.2320   18.1650 H       1  LIG1        0.1506
     12 H          28.4380   19.4080   19.2620 H       1  LIG1        0.1527
     13 C          28.5060   21.6190   19.4920 C.3     1  LIG1       -0.2949
     14 H          28.0630   21.5730   20.4810 H       1  LIG1        0.1475
     15 H          29.2550   22.3960   19.3850 H       1  LIG1        0.1449
     16 C          24.0380   21.3910   17.1120 C.ar    1  LIG1        0.3525
     17 C          23.3280   22.2680   16.2770 C.ar    1  LIG1       -0.2805
     18 H          23.8510   23.0420   15.7170 H       1  LIG1        0.1867
     19 C          21.9380   22.1740   16.1530 C.ar    1  LIG1       -0.0039
     20 H          21.4130   22.8630   15.4950 H       1  LIG1        0.1841
     21 C          21.2460   21.2050   16.8820 C.ar    1  LIG1       -0.5547
     22 C          21.9330   20.3250   17.7180 C.ar    1  LIG1        0.0309
     23 H          21.4050   19.5610   18.2840 H       1  LIG1        0.1735
     24 C          23.3240   20.4250   17.8350 C.ar    1  LIG1       -0.3410
     25 H          23.8420   19.7250   18.4890 H       1  LIG1        0.2039
     26 S          19.4810   21.0700   16.7100 S.O2    1  LIG1        2.1970
     27 O          18.9420   22.4130   16.5150 O.2     1  LIG1       -0.9732
     28 O          18.9820   20.2780   17.8300 O.2     1  LIG1       -0.9752
     29 C          19.2730   20.1460   15.2120 C.3     1  LIG1       -0.7304
     30 H          18.2020   20.0230   15.0350 H       1  LIG1        0.2349
     31 H          19.7450   19.1680   15.3280 H       1  LIG1        0.1906
     32 H          19.7240   20.7000   14.3860 H       1  LIG1        0.1913
     33 C          26.1570   22.7180   15.1150 C.ar    1  LIG1        0.0136
     34 C          26.4170   24.0840   14.9300 C.ar    1  LIG1       -0.3620
     35 H          26.7660   24.7150   15.7420 H       1  LIG1        0.2549
     36 C          26.1980   24.6280   13.6800 C.ar    1  LIG1        0.2537
     37 C          25.7470   23.8710   12.6260 C.ar    1  LIG1        0.2460
     38 C          25.4900   22.5260   12.7620 C.ar    1  LIG1       -0.3355
     39 H          25.1390   21.9290   11.9270 H       1  LIG1        0.2425
     40 C          25.7020   21.9480   14.0190 C.ar    1  LIG1       -0.1448
     41 H          25.5160   20.8810   14.1400 H       1  LIG1        0.1644
     42 O          25.5990   24.5990   11.4880 O.3     1  LIG1       -0.4071
     43 C          26.0080   25.9110   11.9430 C.3     1  LIG1        0.2734
     44 H          26.8600   26.2420   11.3390 H       1  LIG1        0.0973
     45 H          25.1750   26.6080   11.7970 H       1  LIG1        0.0945
     46 O          26.3910   25.9310   13.3380 O.3     1  LIG1       -0.4117
@<TRIPOS>BOND
     1     1     2    2
     2     2     3    1
     3     3     4    1
     4     3     5    1
     5     3     6    1
     6     6     7    1
     7     7     8    1
     8     7     9    1
     9     7     1    1
    10     6    10    1
    11    10    11    1
    12    10    12    1
    13    10    13    1
    14    13    14    1
    15    13    15    1
    16    13     6    1
    17     2    16    1
    18    16    17   ar
    19    17    18    1
    20    17    19   ar
    21    19    20    1
    22    19    21   ar
    23    21    22   ar
    24    22    23    1
    25    22    24   ar
    26    24    25    1
    27    24    16   ar
    28    21    26    1
    29    26    27    2
    30    26    28    2
    31    26    29    1
    32    29    30    1
    33    29    31    1
    34    29    32    1
    35     1    33    1
    36    33    34   ar
    37    34    35    1
    38    34    36   ar
    39    36    37   ar
    40    37    38   ar
    41    38    39    1
    42    38    40   ar
    43    40    41    1
    44    40    33   ar
    45    37    42    1
    46    42    43    1
    47    43    44    1
    48    43    45    1
    49    43    46    1
    50    46    36    1
