@<TRIPOS>MOLECULE
9_48
 42 45 0 0 0
SMALL
USER_CHARGES
****
From 3DB ct
@<TRIPOS>ATOM
      1 C          26.3870   22.0820   16.4210 C.2     1  LIG1        0.0408
      2 C          25.4960   21.5020   17.2550 C.2     1  LIG1       -0.2918
      3 C          26.1820   20.9250   18.4750 C.3     1  LIG1       -0.0715
      4 H          26.0560   19.8390   18.5240 H       1  LIG1        0.0845
      5 H          25.7800   21.3760   19.3890 H       1  LIG1        0.0789
      6 C          27.6450   21.2770   18.2990 C.3     1  LIG1       -0.0088
      7 C          27.7880   22.0280   16.9920 C.3     1  LIG1       -0.0087
      8 H          28.1800   23.0340   17.1720 H       1  LIG1        0.0534
      9 H          28.4590   21.4960   16.3080 H       1  LIG1        0.0590
     10 C          28.7310   20.3360   18.7730 C.3     1  LIG1       -0.3237
     11 H          29.6310   20.2390   18.1760 H       1  LIG1        0.1506
     12 H          28.4410   19.4200   19.2770 H       1  LIG1        0.1520
     13 C          28.5040   21.6330   19.4930 C.3     1  LIG1       -0.2892
     14 H          28.0610   21.5920   20.4820 H       1  LIG1        0.1460
     15 H          29.2520   22.4100   19.3820 H       1  LIG1        0.1429
     16 C          24.0380   21.3890   17.1140 C.ar    1  LIG1        0.4504
     17 C          23.3290   22.2670   16.2800 C.ar    1  LIG1       -0.3527
     18 H          23.8520   23.0420   15.7210 H       1  LIG1        0.1919
     19 C          21.9390   22.1740   16.1570 C.ar    1  LIG1        0.0942
     20 H          21.4100   22.8630   15.5020 H       1  LIG1        0.1754
     21 C          21.2450   21.2040   16.8840 C.ar    1  LIG1       -0.6525
     22 C          21.9330   20.3240   17.7210 C.ar    1  LIG1        0.0794
     23 H          21.4030   19.5620   18.2880 H       1  LIG1        0.1799
     24 C          23.3240   20.4240   17.8380 C.ar    1  LIG1       -0.3722
     25 H          23.8420   19.7240   18.4920 H       1  LIG1        0.2052
     26 S          19.4880   21.0720   16.7030 S.O2    1  LIG1        2.4746
     27 O          18.9310   22.3820   16.4140 O.2     1  LIG1       -1.0013
     28 O          18.9580   20.2710   17.7920 O.2     1  LIG1       -1.0042
     29 N          19.3460   20.1640   15.3030 N.3     1  LIG1       -1.3048
     30 H          18.8660   20.6910   14.5690 H       1  LIG1        0.4798
     31 H          18.8800   19.2720   15.4870 H       1  LIG1        0.4823
     32 C          26.1540   22.7080   15.1140 C.ar    1  LIG1        0.0203
     33 C          26.4120   24.0710   14.9190 C.ar    1  LIG1       -0.3629
     34 H          26.7640   24.7010   15.7320 H       1  LIG1        0.2598
     35 C          26.2000   24.6490   13.6710 C.ar    1  LIG1        0.3478
     36 C          25.7410   23.8860   12.6060 C.ar    1  LIG1        0.3832
     37 C          25.4890   22.5310   12.7730 C.ar    1  LIG1       -0.3413
     38 H          25.1350   21.9350   11.9370 H       1  LIG1        0.2467
     39 C          25.6980   21.9440   14.0250 C.ar    1  LIG1       -0.1368
     40 H          25.5090   20.8770   14.1390 H       1  LIG1        0.1758
     41 F          25.5420   24.4540   11.4080 F       1  LIG1       -0.3189
     42 F          26.4440   25.9570   13.5000 F       1  LIG1       -0.3138
@<TRIPOS>BOND
     1     1     2    2
     2     2     3    1
     3     3     4    1
     4     3     5    1
     5     3     6    1
     6     6     7    1
     7     7     8    1
     8     7     9    1
     9     7     1    1
    10     6    10    1
    11    10    11    1
    12    10    12    1
    13    10    13    1
    14    13    14    1
    15    13    15    1
    16    13     6    1
    17     2    16    1
    18    16    17   ar
    19    17    18    1
    20    17    19   ar
    21    19    20    1
    22    19    21   ar
    23    21    22   ar
    24    22    23    1
    25    22    24   ar
    26    24    25    1
    27    24    16   ar
    28    21    26    1
    29    26    27    2
    30    26    28    2
    31    26    29    1
    32    29    30    1
    33    29    31    1
    34     1    32    1
    35    32    33   ar
    36    33    34    1
    37    33    35   ar
    38    35    36   ar
    39    36    37   ar
    40    37    38    1
    41    37    39   ar
    42    39    40    1
    43    39    32   ar
    44    36    41    1
    45    35    42    1
