@<TRIPOS>MOLECULE
34x
 69 72 0 0 0
SMALL
USER_CHARGES

@<TRIPOS>ATOM
      1 C1          3.8883   -6.3660   15.3010 C.ar    4  NAPHTHALENE4   -0.2198
      2 C2          4.0586   -5.1493   15.9683 C.ar    4  NAPHTHALENE4   -0.1579
      3 C3          5.3273   -4.5717   16.0532 C.ar    4  NAPHTHALENE4   -0.0488
      4 C4          6.4270   -5.2184   15.4827 C.ar    4  NAPHTHALENE4   -0.3512
      5 ****        6.7708   -9.3104   10.3982 H       2  APM22       0.1063
      6 ****        5.2425  -10.4915    8.6599 H       2  APM22       0.1822
      7 ****        6.1607   -9.1135    8.0480 H       2  APM22       0.1441
      8 ****        2.8375  -10.3750    8.5023 H       2  APM22       0.2155
      9 ****        5.1118   -6.8540    7.7440 H       2  APM22       0.1629
     10 ****        3.0761   -5.6719    7.0104 H       2  APM22       0.2052
     11 ****        0.9059   -6.7243    7.1993 H       2  APM22       0.1605
     12 ****        3.9716   -9.9459   10.9966 H       2  APM22       0.3958
     13 ****       -1.5927   -9.3772    7.0694 H       2  APM22       0.5697
     14 ****       -0.5703   -8.0823    6.4840 H       2  APM22       0.5545
     15 ****        0.8531  -10.8788    9.0907 H       2  APM22       0.5566
     16 ****       -0.7755  -10.9794    8.4547 H       2  APM22       0.5791
     17 ****        7.5445   -6.2353    8.4236 H       3  PIP33       0.1389
     18 ****        7.8144   -7.8218    9.1372 H       3  PIP33       0.0910
     19 ****        9.6636   -6.3065    9.7694 H       3  PIP33       0.0684
     20 ****        8.7217   -6.7949   11.2048 H       3  PIP33      -0.0174
     21 ****        8.3584   -4.1751    9.6183 H       3  PIP33       0.1815
     22 C           9.5034   -4.1269   11.4336 C.2     5  CO25        0.8798
     23 ****        6.8205   -3.4930   11.4680 H       3  PIP33       0.0487
     24 ****        7.0209   -5.0875   12.2433 H       3  PIP33      -0.0121
     25 ****        4.9454   -5.0544   10.8975 H       3  PIP33       0.1098
     26 ****        5.8516   -4.6040    9.4433 H       3  PIP33       0.1100
     27 S           5.6913  -10.4223   12.6297 S.O2    1  TOS11       2.2977
     28 O1          6.9866  -10.9951   12.3150 O.2     1  TOS11      -0.9336
     29 O2          4.7174  -11.2158   13.3528 O.2     1  TOS11      -0.9541
     30 C5          7.3642   -7.1329   14.3143 C.ar    4  NAPHTHALENE4   -0.3423
     31 C6          7.1924   -8.3093   13.5816 C.ar    4  NAPHTHALENE4   -0.0089
     32 C7          5.9240   -8.8844   13.4858 C.ar    4  NAPHTHALENE4   -0.5178
     33 C8          4.8242   -8.2317   14.0496 C.ar    4  NAPHTHALENE4   -0.1951
     34 C9          4.9864   -7.0183   14.7288 C.ar    4  NAPHTHALENE4    0.1549
     35 C10         6.2628   -6.4519   14.8414 C.ar    4  NAPHTHALENE4    0.2593
     36 H1          2.8947   -6.7978   15.2333 H       4  NAPHTHALENE4    0.1884
     37 C           5.4855   -7.5675   10.4968 C.2     2  APM22       0.6594
     38 CA          5.7253   -9.0328   10.2021 C.3     2  APM22       0.3160
     39 CB          5.3514   -9.3981    8.7357 C.3     2  APM22      -0.4799
     40 CG          4.0793   -8.6836    8.2428 C.ar    2  APM22       0.1766
     41 CD1         2.8425   -9.3334    8.2167 C.ar    2  APM22      -0.1491
     42 CD2         4.1593   -7.3645    7.7874 C.ar    2  APM22      -0.0208
     43 CE1         1.6641   -8.6756    7.8204 C.ar    2  APM22      -0.3782
     44 CE2         3.0085   -6.6917    7.3773 C.ar    2  APM22      -0.1887
     45 CZ          1.7704   -7.3268    7.4432 C.ar    2  APM22      -0.0443
     46 CF          0.3198   -9.3856    7.7934 C.3     2  APM22       1.1278
     47 O           4.4731   -7.3444   11.1423 O.2     2  APM22      -0.6225
     48 N           4.9528   -9.8256   11.1507 N.3     2  APM22      -1.0261
     49 NG1        -0.6747   -8.9141    7.0743 N.3     2  APM22      -1.0443
     50 NG2         0.1251  -10.4844    8.4869 N.3     2  APM22      -1.0276
     51 N1          6.2981   -6.5500   10.0861 N.am    3  PIP33      -0.4657
     52 C2          7.5622   -6.7835    9.3784 C.3     3  PIP33      -0.1216
     53 C3          8.6874   -6.2101   10.2728 C.3     3  PIP33       0.1279
     54 C4          8.4018   -4.7171   10.5806 C.3     3  PIP33      -0.5181
     55 C5          7.0251   -4.5595   11.2780 C.3     3  PIP33       0.1414
     56 C6          5.9155   -5.1674   10.3877 C.3     3  PIP33      -0.0767
     57 O          10.1525   -3.1990   10.9798 O.2     5  CO25       -0.6109
     58 N           9.7288   -4.6455   12.6627 N.am    5  CO25       -0.8498
     59 ****       10.7567   -4.1197   13.5529 C.3     5  CO25       -0.0717
     60 H2          3.2051   -4.6528   16.4196 H       4  NAPHTHALENE4    0.1771
     61 H3          5.4592   -3.6217   16.5619 H       4  NAPHTHALENE4    0.1698
     62 H4          7.4064   -4.7532   15.5430 H       4  NAPHTHALENE4    0.2058
     63 H5          8.3645   -6.7618   14.4829 H       4  NAPHTHALENE4    0.2155
     64 H6          8.0452   -8.7742   13.0991 H       4  NAPHTHALENE4    0.1782
     65 H8          3.8413   -8.6799   13.9523 H       4  NAPHTHALENE4    0.2311
     66 ****       11.4735   -4.9195   13.7958 H       5  CO25        0.0949
     67 ****       10.2865   -3.7758   14.4874 H       5  CO25        0.0793
     68 ****       11.3122   -3.2784   13.1160 H       5  CO25        0.1311
     69 ****        9.1981   -5.4084   13.0027 H       5  CO25        0.4842
@<TRIPOS>BOND
     1    27    32    1
     2    30    31   ar
     3    30    35   ar
     4    30    63    1
     5    35     4   ar
     6    35    34   ar
     7    34     1   ar
     8    38     5    1
     9    39     6    1
    10    39     7    1
    11    41     8    1
    12    42     9    1
    13    44    10    1
    14    45    11    1
    15    48    12    1
    16    49    13    1
    17    49    14    1
    18    50    15    1
    19    50    16    1
    20    52    17    1
    21    52    18    1
    22    53    19    1
    23    53    20    1
    24    54    21    1
    25    22    57    2
    26    55    23    1
    27    55    24    1
    28    56    25    1
    29    56    26    1
    30    34    33   ar
    31    27    29    2
    32    27    28    2
    33    33    32   ar
    34    33    65    1
    35    32    31   ar
    36    31    64    1
    37     1     2   ar
    38     1    36    1
    39    37    47    2
    40    38    37    1
    41    38    48    1
    42    39    38    1
    43    40    39    1
    44    40    42   ar
    45    41    40   ar
    46    43    41   ar
    47    46    43    1
    48    43    45   ar
    49    45    44   ar
    50    44    42   ar
    51    46    50    1
    52    46    49    1
    53    51    56    1
    54    52    51    1
    55    53    52    1
    56    54    53    1
    57    54    55    1
    58    55    56    1
    59    37    51   am
    60    48    27    1
    61    22    58   am
    62    54    22    1
    63    58    59    1
    64     2     3   ar
    65     2    60    1
    66     3     4   ar
    67     3    61    1
    68     4    62    1
    69    59    66    1
    70    59    67    1
    71    59    68    1
    72    58    69    1
