@<TRIPOS>MOLECULE
42x
 79 83 0 0 0
SMALL
USER_CHARGES

@<TRIPOS>ATOM
      1 C1          3.9018   -6.3661   15.2985 C.ar    4  NAPHTHALENE4   -0.2509
      2 C2          4.0688   -5.1510   15.9670 C.ar    4  NAPHTHALENE4   -0.1258
      3 C3          5.3364   -4.5701   16.0505 C.ar    4  NAPHTHALENE4   -0.0525
      4 C4          6.4348   -5.2063   15.4645 C.ar    4  NAPHTHALENE4   -0.3224
      5 ****        6.7671   -9.2962   10.4006 H       2  APM22       0.1019
      6 ****        5.2471  -10.4923    8.6610 H       2  APM22       0.1657
      7 ****        6.1632   -9.1152    8.0450 H       2  APM22       0.1349
      8 ****        2.7989  -10.3885    8.5112 H       2  APM22       0.2056
      9 ****        5.1094   -6.8600    7.7387 H       2  APM22       0.1730
     10 ****        3.0682   -5.6668    7.0411 H       2  APM22       0.2042
     11 ****        0.8717   -6.7599    7.2077 H       2  APM22       0.1635
     12 ****        3.9681   -9.9418   10.9893 H       2  APM22       0.3926
     13 ****       -1.5777   -9.3665    7.0619 H       2  APM22       0.5722
     14 ****       -0.5254   -8.0594    6.5068 H       2  APM22       0.5560
     15 ****        0.8982  -10.8647    9.0865 H       2  APM22       0.5411
     16 ****       -0.7557  -10.9834    8.4735 H       2  APM22       0.5727
     17 ****        7.5160   -6.2003    8.4275 H       3  PIP33       0.1332
     18 ****        7.7771   -7.7934    9.1263 H       3  PIP33       0.0625
     19 ****        9.1806   -4.3256   11.2825 H       3  PIP33       0.0774
     20 ****        8.6350   -6.7701   11.2391 H       3  PIP33       0.1064
     21 ****        8.4111   -4.1077    9.6871 H       3  PIP33       0.1137
     22 C22        11.7911   -7.7902    8.7689 C.3     6  CO26       -0.2393
     23 ****        6.8037   -3.4712   11.4819 H       3  PIP33       0.0405
     24 ****        7.0140   -5.0609   12.2656 H       3  PIP33       0.0020
     25 ****        4.9276   -5.0427   10.9135 H       3  PIP33       0.0794
     26 ****        5.8359   -4.5812    9.4630 H       3  PIP33       0.0760
     27 S           5.6860  -10.4186   12.6276 S.O2    1  TOS11       2.2525
     28 O1          6.9745  -11.0064   12.3141 O.2     1  TOS11      -0.9239
     29 O2          4.7043  -11.1967   13.3573 O.2     1  TOS11      -0.9481
     30 C5          7.3675   -7.0682   14.2052 C.ar    4  NAPHTHALENE4   -0.2266
     31 C6          7.1980   -8.2838   13.5377 C.ar    4  NAPHTHALENE4   -0.1550
     32 C7          5.9332   -8.8739   13.4690 C.ar    4  NAPHTHALENE4   -0.4139
     33 C8          4.8368   -8.2258   14.0437 C.ar    4  NAPHTHALENE4   -0.2253
     34 C9          5.0002   -7.0073   14.7114 C.ar    4  NAPHTHALENE4    0.2018
     35 C10         6.2718   -6.4244   14.7947 C.ar    4  NAPHTHALENE4    0.1787
     36 H1          2.9112   -6.8068   15.2408 H       4  NAPHTHALENE4    0.1893
     37 C           5.4709   -7.5574   10.4973 C.2     2  APM22       0.5196
     38 CA          5.7209   -9.0229   10.2002 C.3     2  APM22       0.3376
     39 CB          5.3537   -9.3985    8.7338 C.3     2  APM22      -0.4270
     40 CG          4.0772   -8.6907    8.2443 C.ar    2  APM22       0.1643
     41 CD1         2.8387   -9.3442    8.2248 C.ar    2  APM22      -0.1395
     42 CD2         4.1542   -7.3695    7.7904 C.ar    2  APM22      -0.0347
     43 CE1         1.6696   -8.6777    7.8290 C.ar    2  APM22      -0.3630
     44 CE2         3.0003   -6.6916    7.3939 C.ar    2  APM22      -0.1772
     45 CZ          1.7603   -7.3314    7.4529 C.ar    2  APM22      -0.0608
     46 CF          0.3263   -9.3886    7.8007 C.3     2  APM22       1.1089
     47 O           4.4575   -7.3418   11.1437 O.2     2  APM22      -0.6061
     48 N           4.9491   -9.8208   11.1455 N.3     2  APM22      -0.9882
     49 NG1        -0.6560   -8.9043    7.0805 N.3     2  APM22      -1.0463
     50 NG2         0.1469  -10.4849    8.4947 N.3     2  APM22      -1.0010
     51 N1          6.2764   -6.5317   10.0902 N.am    3  PIP33      -0.4067
     52 C2          7.5363   -6.7565    9.3780 C.3     3  PIP33      -0.0414
     53 C3          8.6574   -6.2048   10.2924 C.3     3  PIP33      -0.1879
     54 C4          8.3898   -4.7062   10.6138 C.3     3  PIP33      -0.2032
     55 C5          7.0076   -4.5393   11.2959 C.3     3  PIP33       0.0692
     56 C6          5.8983   -5.1503   10.4043 C.3     3  PIP33       0.0076
     57 ****       11.7166   -7.3724    7.7522 H       6  CO26        0.1799
     58 ****       10.0317   -8.4625    9.7632 H       6  CO26        0.4046
     59 ****       12.5453   -7.2031    9.3154 H       6  CO26        0.1364
     60 H2          3.2144   -4.6583   16.4216 H       4  NAPHTHALENE4    0.1655
     61 H3          5.4673   -3.6259   16.5702 H       4  NAPHTHALENE4    0.1639
     62 H4          7.4139   -4.7425   15.5366 H       4  NAPHTHALENE4    0.2013
     63 H5          8.3586   -6.6281   14.2610 H       4  NAPHTHALENE4    0.1965
     64 H6          8.0513   -8.7678   13.0748 H       4  NAPHTHALENE4    0.2019
     65 H8          3.8560   -8.6827   13.9639 H       4  NAPHTHALENE4    0.2238
     66 C          10.0018   -6.3926    9.6249 C.2     6  CO26        0.8016
     67 O          10.6042   -5.3967    9.2561 O.2     6  CO26       -0.6083
     68 N          10.5067   -7.6388    9.4465 N.am    6  CO26       -0.6937
     69 C          12.2741   -9.2489    8.6939 C.ar    5  PHENYL5     0.1201
     70 C          13.0424   -9.7830    9.7339 C.ar    5  PHENYL5    -0.1828
     71 C          13.5308  -11.0909    9.6605 C.ar    5  PHENYL5    -0.1554
     72 C          13.2363  -11.8852    8.5503 C.ar    5  PHENYL5    -0.1138
     73 C          12.4536  -11.3655    7.5150 C.ar    5  PHENYL5    -0.1396
     74 C          11.9693  -10.0553    7.5902 C.ar    5  PHENYL5    -0.2188
     75 ****       13.2676   -9.1808   10.6072 H       5  PHENYL5     0.1692
     76 ****       14.1404  -11.4882   10.4659 H       5  PHENYL5     0.1577
     77 ****       13.6154  -12.9012    8.4941 H       5  PHENYL5     0.1517
     78 ****       12.2262  -11.9848    6.6526 H       5  PHENYL5     0.1489
     79 ****       11.3559   -9.6620    6.7859 H       5  PHENYL5     0.1740
@<TRIPOS>BOND
     1    27    32    1
     2    30    31   ar
     3    30    35   ar
     4    30    63    1
     5    35     4   ar
     6    35    34   ar
     7    34     1   ar
     8    38     5    1
     9    39     6    1
    10    39     7    1
    11    41     8    1
    12    42     9    1
    13    44    10    1
    14    45    11    1
    15    48    12    1
    16    49    13    1
    17    49    14    1
    18    50    15    1
    19    50    16    1
    20    52    17    1
    21    52    18    1
    22    53    66    1
    23    53    20    1
    24    54    21    1
    25    54    19    1
    26    55    23    1
    27    55    24    1
    28    56    25    1
    29    56    26    1
    30    34    33   ar
    31    27    29    2
    32    27    28    2
    33    33    32   ar
    34    33    65    1
    35    32    31   ar
    36    31    64    1
    37     1     2   ar
    38     1    36    1
    39    37    47    2
    40    38    37    1
    41    38    48    1
    42    39    38    1
    43    40    39    1
    44    40    42   ar
    45    41    40   ar
    46    43    41   ar
    47    46    43    1
    48    43    45   ar
    49    45    44   ar
    50    44    42   ar
    51    46    50    1
    52    46    49    1
    53    51    56    1
    54    52    51    1
    55    53    52    1
    56    54    53    1
    57    54    55    1
    58    55    56    1
    59    37    51   am
    60    48    27    1
    61    68    22    1
    62    22    57    1
    63    22    69    1
    64     2     3   ar
    65     2    60    1
    66     3     4   ar
    67     3    61    1
    68     4    62    1
    69    22    59    1
    70    66    67    2
    71    66    68   am
    72    69    70   ar
    73    69    74   ar
    74    74    73   ar
    75    73    72   ar
    76    72    71   ar
    77    71    70   ar
    78    68    58    1
    79    70    75    1
    80    71    76    1
    81    72    77    1
    82    73    78    1
    83    74    79    1
