@<TRIPOS>MOLECULE
59x
 69 72 0 0 0
SMALL
USER_CHARGES

@<TRIPOS>ATOM
      1 C1          3.9006   -6.3580   15.2842 C.ar    4  NAPHTHALENE4   -0.2397
      2 C2          4.0762   -5.1447   15.9551 C.ar    4  NAPHTHALENE4   -0.1251
      3 C3          5.3472   -4.5706   16.0342 C.ar    4  NAPHTHALENE4   -0.0654
      4 C4          6.4402   -5.2114   15.4444 C.ar    4  NAPHTHALENE4   -0.3130
      5 ****        6.7633   -9.2823   10.3604 H       2  APM22       0.1514
      6 ****        5.2501  -10.5166    8.6566 H       2  APM22       0.1512
      7 ****        6.1323   -9.1234    8.0118 H       2  APM22       0.1164
      8 ****        2.7502  -10.4625    8.5399 H       2  APM22       0.2046
      9 ****        5.0337   -6.9397    7.6841 H       2  APM22       0.1869
     10 ****        2.9697   -5.7164    7.1074 H       2  APM22       0.2046
     11 ****        0.7768   -6.8348    7.2989 H       2  APM22       0.1600
     12 ****        3.9489   -9.8798   10.9493 H       2  APM22       0.3973
     13 ****       -1.6325   -9.4095    7.0968 H       2  APM22       0.5675
     14 ****       -0.5700   -8.0949    6.5726 H       2  APM22       0.5547
     15 ****        0.8602  -10.9528    9.0864 H       2  APM22       0.5391
     16 ****       -0.8044  -11.0630    8.4918 H       2  APM22       0.5693
     17 C           7.7085   -5.9234    8.1229 C.2     5  CO25        0.9994
     18 ****        7.8370   -7.7225    9.1990 H       3  PIP33       0.1318
     19 ****        9.6882   -6.3136   10.0927 H       3  PIP33       0.0264
     20 ****        8.5579   -6.7434   11.3978 H       3  PIP33       0.0662
     21 ****        8.4585   -4.0778    9.8255 H       3  PIP33       0.0957
     22 ****        9.1898   -4.2805   11.4326 H       3  PIP33       0.0840
     23 ****        6.8108   -3.4301   11.5981 H       3  PIP33       0.0452
     24 ****        7.0225   -5.0130   12.3890 H       3  PIP33       0.0108
     25 ****        4.9664   -5.0729   11.1043 H       3  PIP33       0.0908
     26 ****        5.7420   -4.4625    9.6786 H       3  PIP33       0.0877
     27 S           5.6581  -10.4144   12.6062 S.O2    1  TOS11       2.2586
     28 O1          6.9409  -11.0175   12.2993 O.2     1  TOS11      -0.9277
     29 O2          4.6578  -11.1803   13.3241 O.2     1  TOS11      -0.9553
     30 C5          7.3607   -7.0805   14.1874 C.ar    4  NAPHTHALENE4   -0.2837
     31 C6          7.1827   -8.2938   13.5171 C.ar    4  NAPHTHALENE4   -0.1018
     32 C7          5.9137   -8.8739   13.4489 C.ar    4  NAPHTHALENE4   -0.4505
     33 C8          4.8213   -8.2195   14.0225 C.ar    4  NAPHTHALENE4   -0.1875
     34 C9          4.9934   -7.0034   14.6938 C.ar    4  NAPHTHALENE4    0.1626
     35 C10         6.2695   -6.4300   14.7758 C.ar    4  NAPHTHALENE4    0.2134
     36 H1          2.9071   -6.7926   15.2283 H       4  NAPHTHALENE4    0.1889
     37 C           5.4777   -7.5264   10.4406 C.2     2  APM22       0.4476
     38 CA          5.7202   -8.9997   10.1566 C.3     2  APM22       0.2075
     39 CB          5.3327   -9.4193    8.7085 C.3     2  APM22      -0.3596
     40 CG          4.0235   -8.7553    8.2416 C.ar    2  APM22       0.1424
     41 CD1         2.7875   -9.4185    8.2485 C.ar    2  APM22      -0.1459
     42 CD2         4.0776   -7.4380    7.7792 C.ar    2  APM22       0.0099
     43 CE1         1.6140   -8.7504    7.8697 C.ar    2  APM22      -0.3745
     44 CE2         2.9133   -6.7502    7.4343 C.ar    2  APM22      -0.1928
     45 CZ          1.6791   -7.3989    7.5133 C.ar    2  APM22      -0.0536
     46 CF          0.2704   -9.4599    7.8338 C.3     2  APM22       1.1054
     47 O           4.4216   -7.3268   11.0209 O.2     2  APM22      -0.5821
     48 N           4.9330   -9.7827   11.1034 N.3     2  APM22      -0.9578
     49 NG1        -0.7080   -8.9533    7.1257 N.3     2  APM22      -1.0426
     50 NG2         0.0994  -10.5661    8.5103 N.3     2  APM22      -0.9957
     51 N1          6.3044   -6.4798   10.1167 N.am    3  PIP33      -0.2160
     52 C2          7.6037   -6.6776    9.4420 C.3     3  PIP33      -0.4017
     53 C3          8.6598   -6.1693   10.4609 C.3     3  PIP33       0.0619
     54 C4          8.4103   -4.6669   10.7557 C.3     3  PIP33      -0.2468
     55 C5          7.0191   -4.4982   11.4169 C.3     3  PIP33       0.0662
     56 C6          5.9075   -5.1214   10.5372 C.3     3  PIP33      -0.0417
     57 ****        9.3871   -6.9057    7.4263 H       5  CO25        0.4885
     58 ****        9.7131   -4.9420    5.8950 H       5  CO25        0.1015
     59 H2          3.2262   -4.6492   16.4143 H       4  NAPHTHALENE4    0.1660
     60 H3          5.4845   -3.6273   16.5539 H       4  NAPHTHALENE4    0.1660
     61 H4          7.4217   -4.7522   15.5115 H       4  NAPHTHALENE4    0.1977
     62 H5          8.3553   -6.6485   14.2445 H       4  NAPHTHALENE4    0.2090
     63 H6          8.0312   -8.7833   13.0515 H       4  NAPHTHALENE4    0.1898
     64 H8          3.8369   -8.6679   13.9403 H       4  NAPHTHALENE4    0.2211
     65 O           6.8926   -5.0568    7.8650 O.2     5  CO25       -0.6423
     66 N           8.6935   -6.2100    7.2367 N.am    5  CO25       -0.8638
     67 ****        8.7795   -5.5230    5.9447 C.3     5  CO25       -0.0309
     68 ****        7.9403   -4.8393    5.7368 H       5  CO25        0.1133
     69 ****        8.8006   -6.2788    5.1448 H       5  CO25        0.0612
@<TRIPOS>BOND
     1    27    32    1
     2    30    31   ar
     3    30    35   ar
     4    30    62    1
     5    35     4   ar
     6    35    34   ar
     7    34     1   ar
     8    38     5    1
     9    39     6    1
    10    39     7    1
    11    41     8    1
    12    42     9    1
    13    44    10    1
    14    45    11    1
    15    48    12    1
    16    49    13    1
    17    49    14    1
    18    50    15    1
    19    50    16    1
    20    17    65    2
    21    52    18    1
    22    53    19    1
    23    53    20    1
    24    54    21    1
    25    54    22    1
    26    55    23    1
    27    55    24    1
    28    56    25    1
    29    56    26    1
    30    34    33   ar
    31    27    29    2
    32    27    28    2
    33    33    32   ar
    34    33    64    1
    35    32    31   ar
    36    31    63    1
    37     1     2   ar
    38     1    36    1
    39    37    47    2
    40    38    37    1
    41    38    48    1
    42    39    38    1
    43    40    39    1
    44    40    42   ar
    45    41    40   ar
    46    43    41   ar
    47    46    43    1
    48    43    45   ar
    49    45    44   ar
    50    44    42   ar
    51    46    50    1
    52    46    49    1
    53    51    56    1
    54    52    51    1
    55    53    52    1
    56    54    53    1
    57    54    55    1
    58    55    56    1
    59    37    51   am
    60    48    27    1
    61    66    57    1
    62    67    58    1
    63     2     3   ar
    64     2    59    1
    65     3     4   ar
    66     3    60    1
    67     4    61    1
    68    66    17   am
    69    52    17    1
    70    66    67    1
    71    67    68    1
    72    67    69    1
