@<TRIPOS>MOLECULE
60x
 61 64 0 0 0
SMALL
USER_CHARGES

@<TRIPOS>ATOM
      1 C1          3.8912   -6.3551   15.3044 C.ar    4  NAPHTHALENE4   -0.2528
      2 C2          4.0608   -5.1410   15.9736 C.ar    4  NAPHTHALENE4   -0.1350
      3 C3          5.3291   -4.5619   16.0549 C.ar    4  NAPHTHALENE4   -0.1027
      4 C4          6.4258   -5.2009   15.4667 C.ar    4  NAPHTHALENE4   -0.2861
      5 ****        6.6524   -9.4605   10.2547 H       2  APM22       0.1546
      6 ****        5.0595  -10.5696    8.6178 H       2  APM22       0.2467
      7 ****        6.0416   -9.2598    7.9820 H       2  APM22       0.2765
      8 ****        2.6946  -10.3961    8.4547 H       2  APM22       0.2143
      9 ****        5.0790   -6.9058    7.7266 H       2  APM22       0.1973
     10 ****        3.0579   -5.6631    7.0333 H       2  APM22       0.1820
     11 ****        0.8358   -6.7217    7.1868 H       2  APM22       0.1436
     12 ****        3.8600   -9.9397   11.0308 H       2  APM22       0.3919
     13 ****       -1.6363   -9.3594    7.0522 H       2  APM22       0.5499
     14 ****       -0.5869   -8.0428    6.5080 H       2  APM22       0.5443
     15 ****        0.8619  -10.8565    9.0664 H       2  APM22       0.5457
     16 ****       -0.7897  -10.9937    8.4541 H       2  APM22       0.5621
     17 C           8.6950   -7.4871   10.2689 C.2     5  CO25        0.6581
     18 N1          6.3862   -6.6583   10.0975 N.am    3  PYRROLIDINE3   -0.4961
     19 C1          6.0870   -5.2661   10.4126 C.3     3  PYRROLIDINE3   -0.0906
     20 C2          7.4173   -4.5758   10.0393 C.3     3  PYRROLIDINE3    0.0580
     21 C3          7.9220   -5.4674    8.8835 C.3     3  PYRROLIDINE3   -0.3571
     22 C4          7.6210   -6.9178    9.3664 C.3     3  PYRROLIDINE3    0.4072
     23 O           8.6694   -7.2501   11.5037 O.co2   5  CO25       -0.8881
     24 H2          5.8297   -5.1031   11.4698 H       3  PYRROLIDINE3    0.0929
     25 H3          5.2700   -4.9036    9.7661 H       3  PYRROLIDINE3    0.0728
     26 H4          8.1258   -4.6370   10.8814 H       3  PYRROLIDINE3    0.0600
     27 S           5.6430  -10.4055   12.6080 S.O2    1  TOS11       2.2948
     28 O1          6.9228  -10.9767   12.2355 O.2     1  TOS11      -0.9470
     29 O2          4.7073  -11.2040   13.3750 O.2     1  TOS11      -1.0481
     30 C5          7.3549   -7.0794   14.2237 C.ar    4  NAPHTHALENE4   -0.2731
     31 C6          7.1864   -8.3221   13.6064 C.ar    4  NAPHTHALENE4   -0.0663
     32 C7          5.9112   -8.8783   13.4811 C.ar    4  NAPHTHALENE4   -0.4770
     33 C8          4.8173   -8.2128   14.0412 C.ar    4  NAPHTHALENE4   -0.1628
     34 C9          4.9872   -6.9989   14.7143 C.ar    4  NAPHTHALENE4    0.1095
     35 C10         6.2610   -6.4210   14.8017 C.ar    4  NAPHTHALENE4    0.2543
     36 H1          2.9000   -6.7941   15.2478 H       4  NAPHTHALENE4    0.1754
     37 C           5.5013   -7.6275   10.4618 C.2     2  APM22       0.5911
     38 CA          5.6210   -9.1069   10.1422 C.3     2  APM22       0.5065
     39 CB          5.2286   -9.4834    8.6856 C.3     2  APM22      -0.8017
     40 CG          3.9967   -8.7148    8.2057 C.ar    2  APM22       0.3042
     41 CD1         2.7506   -9.3481    8.1849 C.ar    2  APM22      -0.1358
     42 CD2         4.1093   -7.3911    7.7689 C.ar    2  APM22      -0.0760
     43 CE1         1.6003   -8.6534    7.8041 C.ar    2  APM22      -0.3911
     44 CE2         2.9684   -6.6890    7.3787 C.ar    2  APM22      -0.1777
     45 CZ          1.7143   -7.3074    7.4333 C.ar    2  APM22      -0.0744
     46 CF          0.2642   -9.3782    7.7893 C.3     2  APM22       1.0925
     47 O           4.5081   -7.3170   11.1003 O.2     2  APM22      -0.7252
     48 N           4.8504   -9.8384   11.1455 N.3     2  APM22      -1.0354
     49 NG1        -0.7176   -8.8926    7.0747 N.3     2  APM22      -1.0443
     50 NG2         0.1044  -10.4812    8.4780 N.3     2  APM22      -0.9697
     51 H5          7.2879   -3.5148    9.7642 H       3  PYRROLIDINE3    0.0166
     52 H6          8.9772   -5.2777    8.6318 H       3  PYRROLIDINE3    0.1321
     53 H7          7.3071   -5.2263    7.9973 H       3  PYRROLIDINE3    0.0677
     54 H8          7.4775   -7.5672    8.4934 H       3  PYRROLIDINE3   -0.0817
     55 O           9.5908   -8.2027    9.7488 O.co2   5  CO25       -0.9646
     56 H2          3.2078   -4.6474   16.4302 H       4  NAPHTHALENE4    0.1449
     57 H3          5.4619   -3.6179   16.5746 H       4  NAPHTHALENE4    0.1492
     58 H4          7.4049   -4.7367   15.5365 H       4  NAPHTHALENE4    0.1973
     59 H5          8.3434   -6.6307   14.2544 H       4  NAPHTHALENE4    0.2495
     60 H6          8.0494   -8.8591   13.2283 H       4  NAPHTHALENE4    0.2095
     61 H8          3.8328   -8.6576   13.9479 H       4  NAPHTHALENE4    0.2074
@<TRIPOS>BOND
     1    27    32    1
     2    30    31   ar
     3    30    35   ar
     4    30    59    1
     5    35     4   ar
     6    35    34   ar
     7    34     1   ar
     8    38     5    1
     9    39     6    1
    10    39     7    1
    11    41     8    1
    12    42     9    1
    13    44    10    1
    14    45    11    1
    15    48    12    1
    16    49    13    1
    17    49    14    1
    18    50    15    1
    19    50    16    1
    20    37    18   am
    21    18    19    1
    22    18    22    1
    23    17    23   ar
    24    22    21    1
    25    22    54    1
    26    22    17    1
    27    21    20    1
    28    21    52    1
    29    21    53    1
    30    34    33   ar
    31    27    29    2
    32    27    28    2
    33    33    32   ar
    34    33    61    1
    35    32    31   ar
    36    31    60    1
    37     1     2   ar
    38     1    36    1
    39    37    47    2
    40    38    37    1
    41    38    48    1
    42    39    38    1
    43    40    39    1
    44    40    42   ar
    45    41    40   ar
    46    43    41   ar
    47    46    43    1
    48    43    45   ar
    49    45    44   ar
    50    44    42   ar
    51    46    50    1
    52    46    49    1
    53    20    19    1
    54    20    26    1
    55    20    51    1
    56    19    24    1
    57    19    25    1
    58    17    55   ar
    59    48    27    1
    60     2     3   ar
    61     2    56    1
    62     3     4   ar
    63     3    57    1
    64     4    58    1
