@<TRIPOS>MOLECULE
64x
 58 60 0 0 0
SMALL
USER_CHARGES

@<TRIPOS>ATOM
      1 C1          4.8249   -5.2477   14.6793 C.ar    2  NAPHTHALENE2   -0.2258
      2 C2          5.4533   -4.1942   15.3498 C.ar    2  NAPHTHALENE2   -0.1239
      3 C3          6.7955   -4.3094   15.7227 C.ar    2  NAPHTHALENE2   -0.0353
      4 C4          7.5057   -5.4754   15.4254 C.ar    2  NAPHTHALENE2   -0.3040
      5 C5          7.5865   -7.7016   14.4601 C.ar    2  NAPHTHALENE2   -0.2414
      6 C6          6.9609   -8.7529   13.7846 C.ar    2  NAPHTHALENE2   -0.1353
      7 C7          5.6228   -8.6400   13.3971 C.ar    2  NAPHTHALENE2   -0.4307
      8 ****        6.6192   -9.6102   10.3936 H       3  APM23       0.0570
      9 ****        5.2335  -10.4991    8.6259 H       3  APM23       0.1703
     10 ****        6.2215   -9.2096    7.9032 H       3  APM23       0.1801
     11 ****        2.8704  -10.4241    8.2572 H       3  APM23       0.2137
     12 ****        5.1526   -6.8360    7.6885 H       3  APM23       0.2127
     13 ****        3.0678   -5.5904    7.2055 H       3  APM23       0.1916
     14 ****        0.8756   -6.6981    7.4535 H       3  APM23       0.1638
     15 ****        3.8328   -8.5945   10.7639 H       3  APM23       0.4793
     16 ****       -1.5603   -9.2934    7.1797 H       3  APM23       0.5635
     17 ****       -0.5361   -7.9310    6.7033 H       3  APM23       0.5492
     18 ****        1.0409  -10.9509    8.9216 H       3  APM23       0.5828
     19 ****       -0.6510  -11.0334    8.4077 H       3  APM23       0.5523
     20 N20         7.5636   -7.3142    9.5940 N.am    3  APM23      -1.1761
     21 ****        8.1266   -8.0675    9.2461 H       3  APM23       0.5276
     22 C22         8.1459   -5.9703    9.5602 C.3     3  APM23       0.6708
     23 ****        7.4252   -5.1978    9.8792 H       3  APM23       0.0139
     24 C24         8.5621   -5.6562    8.0989 C.3     3  APM23      -0.4560
     25 C25         9.3677   -5.9131   10.5147 C.3     3  APM23      -0.4427
     26 S           4.8289   -9.9413   12.4839 S.O2    1  TOS11       2.3514
     27 O1          5.7408  -11.0576   12.3213 O.2     1  TOS11      -0.9127
     28 O2          3.5059  -10.1705   13.0311 O.2     1  TOS11      -1.0381
     29 C8          4.9107   -7.4776   13.7065 C.ar    2  NAPHTHALENE2   -0.1777
     30 C9          5.5327   -6.4178   14.3774 C.ar    2  NAPHTHALENE2    0.1263
     31 C10         6.8777   -6.5314   14.7539 C.ar    2  NAPHTHALENE2    0.2103
     32 H1          3.7802   -5.1429   14.3994 H       2  NAPHTHALENE2    0.1854
     33 H2          4.9034   -3.2864   15.5797 H       2  NAPHTHALENE2    0.1703
     34 H3          7.2891   -3.4923   16.2407 H       2  NAPHTHALENE2    0.1624
     35 H4          8.5478   -5.5536   15.7212 H       2  NAPHTHALENE2    0.1976
     36 C           6.3171   -7.5429   10.0791 C.2     3  APM23       0.8053
     37 CA          5.7994   -8.9621   10.0460 C.3     3  APM23       0.4677
     38 CB          5.4036   -9.4104    8.6132 C.3     3  APM23      -0.5513
     39 CG          4.1332   -8.6853    8.1432 C.ar    3  APM23       0.2204
     40 CD1         2.9017   -9.3519    8.0935 C.ar    3  APM23      -0.1652
     41 CD2         4.1948   -7.3402    7.7648 C.ar    3  APM23      -0.1148
     42 CE1         1.7156   -8.6558    7.8288 C.ar    3  APM23      -0.3124
     43 CE2         3.0198   -6.6375    7.4867 C.ar    3  APM23      -0.1534
     44 CZ          1.7823   -7.2808    7.5766 C.ar    3  APM23      -0.0779
     45 CF          0.3773   -9.3740    7.8143 C.3     3  APM23       1.0676
     46 O           5.5982   -6.6699   10.5380 O.2     3  APM23      -0.6428
     47 N           4.6741   -9.0972   10.9622 N.3     3  APM23      -1.2493
     48 NG1        -0.6403   -8.8288    7.1965 N.3     3  APM23      -1.0498
     49 NG2         0.2489  -10.5300    8.4157 N.3     3  APM23      -0.9827
     50 H5          8.6247   -7.8062   14.7530 H       2  NAPHTHALENE2    0.2104
     51 H6          7.5194   -9.6551   13.5580 H       2  NAPHTHALENE2    0.2032
     52 H8          3.8673   -7.4017   13.4177 H       2  NAPHTHALENE2    0.2253
     53 ****        8.9958   -4.6476    8.0242 H       3  APM23       0.1161
     54 ****        7.6785   -5.7104    7.4446 H       3  APM23       0.1162
     55 ****        9.3054   -6.3860    7.7434 H       3  APM23       0.1204
     56 ****        9.8309   -4.9149   10.4906 H       3  APM23       0.1306
     57 ****       10.1221   -6.6579   10.2199 H       3  APM23       0.1241
     58 ****        9.0460   -6.1281   11.5453 H       3  APM23       0.0814
@<TRIPOS>BOND
     1     5    50    1
     2     5    31   ar
     3     5     6   ar
     4     6    51    1
     5     6     7   ar
     6     7    29   ar
     7    29    52    1
     8    37     8    1
     9    38     9    1
    10    38    10    1
    11    40    11    1
    12    41    12    1
    13    43    13    1
    14    44    14    1
    15    47    15    1
    16    48    16    1
    17    48    17    1
    18    49    18    1
    19    49    19    1
    20    36    20   am
    21    20    21    1
    22    20    22    1
    23    22    23    1
    24    22    24    1
    25    22    25    1
    26    29    30   ar
    27    26    28    2
    28    26    27    2
    29    30     1   ar
    30    30    31   ar
    31    31     4   ar
    32     4    35    1
    33     4     3   ar
    34     3    34    1
    35     3     2   ar
    36    36    46    2
    37    37    36    1
    38    37    47    1
    39    38    37    1
    40    39    38    1
    41    39    41   ar
    42    40    39   ar
    43    42    40   ar
    44    45    42    1
    45    42    44   ar
    46    44    43   ar
    47    43    41   ar
    48    45    49    1
    49    45    48    1
    50    47    26    1
    51     2    33    1
    52     2     1   ar
    53     1    32    1
    54    26     7    1
    55    24    53    1
    56    24    54    1
    57    24    55    1
    58    25    56    1
    59    25    57    1
    60    25    58    1
