@<TRIPOS>MOLECULE
77x
 65 68 0 0 0
SMALL
USER_CHARGES

@<TRIPOS>ATOM
      1 C1          3.9021   -6.3663   15.2989 C.ar    4  NAPHTHALENE4   -0.2305
      2 C2          4.0687   -5.1509   15.9674 C.ar    4  NAPHTHALENE4   -0.1230
      3 C3          5.3362   -4.5699   16.0504 C.ar    4  NAPHTHALENE4   -0.0728
      4 C4          6.4350   -5.2050   15.4644 C.ar    4  NAPHTHALENE4   -0.3333
      5 ****        6.7728   -9.3108   10.3960 H       2  APM22       0.0700
      6 ****        5.2481  -10.4942    8.6562 H       2  APM22       0.1796
      7 ****        6.1667   -9.1125    8.0477 H       2  APM22       0.1045
      8 ****        2.7997  -10.3882    8.5112 H       2  APM22       0.2142
      9 ****        5.1109   -6.8593    7.7427 H       2  APM22       0.1731
     10 ****        3.0698   -5.6681    7.0389 H       2  APM22       0.2053
     11 ****        0.8735   -6.7598    7.2059 H       2  APM22       0.1751
     12 ****        3.9732   -9.9421   10.9945 H       2  APM22       0.4250
     13 ****       -1.5779   -9.3662    7.0617 H       2  APM22       0.5803
     14 ****       -0.5258   -8.0594    6.5058 H       2  APM22       0.5539
     15 ****        0.8975  -10.8644    9.0861 H       2  APM22       0.5475
     16 ****       -0.7565  -10.9825    8.4728 H       2  APM22       0.5816
     17 ****        7.5520   -6.2153    8.4412 H       3  PIP33       0.1305
     18 ****        7.8309   -7.8030    9.1557 H       3  PIP33       0.2070
     19 ****        9.6419   -6.2744    9.8050 H       3  PIP33       0.1878
     20 ****        8.7046   -6.7789   11.2394 H       3  PIP33       0.1690
     21 C23         9.4800   -4.1751   11.4779 C.3     3  PIP33      -0.4066
     22 ****        6.8642   -3.5196   11.4630 H       3  PIP33       0.1887
     23 ****        7.0483   -5.1094   12.2507 H       3  PIP33       0.1748
     24 ****        4.9733   -5.0466   10.9217 H       3  PIP33       0.1954
     25 ****        5.8667   -4.6007    9.4553 H       3  PIP33       0.0983
     26 S           5.6848  -10.4150   12.6223 S.O2    1  TOS11       2.2898
     27 O1          6.9737  -11.0044   12.3112 O.2     1  TOS11      -0.8938
     28 O2          4.7034  -11.1941   13.3524 O.2     1  TOS11      -0.9040
     29 C5          7.3686   -7.0674   14.2069 C.ar    4  NAPHTHALENE4   -0.3332
     30 C6          7.1985   -8.2824   13.5387 C.ar    4  NAPHTHALENE4   -0.0545
     31 C7          5.9337   -8.8718   13.4679 C.ar    4  NAPHTHALENE4   -0.5030
     32 C8          4.8372   -8.2247   14.0438 C.ar    4  NAPHTHALENE4   -0.1816
     33 C9          5.0007   -7.0064   14.7118 C.ar    4  NAPHTHALENE4    0.1410
     34 C10         6.2725   -6.4235   14.7953 C.ar    4  NAPHTHALENE4    0.2307
     35 H1          2.9114   -6.8074   15.2416 H       4  NAPHTHALENE4    0.1963
     36 C           5.4864   -7.5648   10.4910 C.2     2  APM22       0.4827
     37 CA          5.7281   -9.0319   10.1997 C.3     2  APM22       0.4147
     38 CB          5.3559   -9.4006    8.7337 C.3     2  APM22      -0.4290
     39 CG          4.0786   -8.6909    8.2449 C.ar    2  APM22       0.1826
     40 CD1         2.8399   -9.3442    8.2249 C.ar    2  APM22      -0.1620
     41 CD2         4.1559   -7.3699    7.7921 C.ar    2  APM22      -0.0774
     42 CE1         1.6699   -8.6775    7.8285 C.ar    2  APM22      -0.3299
     43 CE2         3.0016   -6.6921    7.3932 C.ar    2  APM22      -0.1684
     44 CZ          1.7618   -7.3317    7.4521 C.ar    2  APM22      -0.0428
     45 CF          0.3267   -9.3882    7.8000 C.3     2  APM22       1.0935
     46 O           4.4689   -7.3440   11.1279 O.2     2  APM22      -0.5489
     47 N           4.9553   -9.8243   11.1497 N.3     2  APM22      -1.0827
     48 NG1        -0.6561   -8.9040    7.0798 N.3     2  APM22      -1.0238
     49 NG2         0.1464  -10.4844    8.4940 N.3     2  APM22      -1.0113
     50 N1          6.3015   -6.5455   10.0886 N.am    3  PIP33      -0.4092
     51 C2          7.5682   -6.7667    9.3929 C.3     3  PIP33      -0.1318
     52 C3          8.6675   -6.1825   10.3129 C.3     3  PIP33      -0.0497
     53 N4          8.3963   -4.7576   10.6413 N.4     3  PIP33      -0.0671
     54 C5          7.0649   -4.5880   11.2812 C.3     3  PIP33      -0.0933
     55 C6          5.9337   -5.1648   10.3975 C.3     3  PIP33      -0.0379
     56 ****       10.4552   -4.2609   10.9721 H       3  PIP33       0.2299
     57 ****        9.5467   -4.6906   12.4485 H       3  PIP33       0.2428
     58 ****        9.2963   -3.1050   11.6655 H       3  PIP33       0.2331
     59 H2          3.2140   -4.6586   16.4222 H       4  NAPHTHALENE4    0.1816
     60 H3          5.4669   -3.6255   16.5704 H       4  NAPHTHALENE4    0.1846
     61 H4          7.4143   -4.7410   15.5357 H       4  NAPHTHALENE4    0.1955
     62 H5          8.3598   -6.6281   14.2641 H       4  NAPHTHALENE4    0.2102
     63 H6          8.0524   -8.7663   13.0772 H       4  NAPHTHALENE4    0.1964
     64 H8          3.8563   -8.6813   13.9653 H       4  NAPHTHALENE4    0.2307
     65 ****        8.3907   -4.1982    9.7093 H       3  PIP33       0.4474
@<TRIPOS>BOND
     1    26    31    1
     2    29    30   ar
     3    29    34   ar
     4    29    62    1
     5    34     4   ar
     6    34    33   ar
     7    33     1   ar
     8    37     5    1
     9    38     6    1
    10    38     7    1
    11    40     8    1
    12    41     9    1
    13    43    10    1
    14    44    11    1
    15    47    12    1
    16    48    13    1
    17    48    14    1
    18    49    15    1
    19    49    16    1
    20    51    17    1
    21    51    18    1
    22    52    19    1
    23    52    20    1
    24    53    21    1
    25    54    22    1
    26    54    23    1
    27    55    24    1
    28    55    25    1
    29    33    32   ar
    30    26    28    2
    31    26    27    2
    32    32    31   ar
    33    32    64    1
    34    31    30   ar
    35    30    63    1
    36     1     2   ar
    37     1    35    1
    38    36    46    2
    39    37    36    1
    40    37    47    1
    41    38    37    1
    42    39    38    1
    43    39    41   ar
    44    40    39   ar
    45    42    40   ar
    46    45    42    1
    47    42    44   ar
    48    44    43   ar
    49    43    41   ar
    50    45    49    1
    51    45    48    1
    52    50    55    1
    53    51    50    1
    54    52    51    1
    55    53    52    1
    56    53    54    1
    57    54    55    1
    58    36    50   am
    59    47    26    1
    60    21    56    1
    61    21    57    1
    62    21    58    1
    63     2     3   ar
    64     2    59    1
    65     3     4   ar
    66     3    60    1
    67     4    61    1
    68    53    65    1
