@<TRIPOS>MOLECULE
79x
 68 71 0 0 0
SMALL
USER_CHARGES

@<TRIPOS>ATOM
      1 C1          3.9013   -6.3598   15.2862 C.ar    4  NAPHTHALENE4   -0.2494
      2 C2          4.0753   -5.1466   15.9570 C.ar    4  NAPHTHALENE4   -0.1167
      3 C3          5.3457   -4.5710   16.0363 C.ar    4  NAPHTHALENE4   -0.0686
      4 C4          6.4396   -5.2102   15.4470 C.ar    4  NAPHTHALENE4   -0.3071
      5 ****        6.7442   -9.2884   10.3867 H       2  APM22       0.1617
      6 ****        5.2583  -10.4993    8.6425 H       2  APM22       0.1941
      7 ****        6.1562   -9.1029    8.0276 H       2  APM22       0.1562
      8 ****        2.7785  -10.4284    8.5273 H       2  APM22       0.2094
      9 ****        5.0633   -6.9030    7.6861 H       2  APM22       0.1884
     10 ****        3.0027   -5.6868    7.0910 H       2  APM22       0.2066
     11 ****        0.8112   -6.8037    7.2805 H       2  APM22       0.1613
     12 ****        3.9352   -9.9046   10.9587 H       2  APM22       0.3935
     13 ****       -1.6025   -9.3922    7.0909 H       2  APM22       0.5705
     14 ****       -0.5454   -8.0761    6.5602 H       2  APM22       0.5554
     15 ****        0.8928  -10.9224    9.0832 H       2  APM22       0.5388
     16 ****       -0.7705  -11.0367    8.4876 H       2  APM22       0.5713
     17 C           7.6093   -6.0353    8.0402 C.2     5  CO25        1.0695
     18 ****        7.7906   -7.7481    9.2075 H       3  PIP33       0.1192
     19 ****        9.6619   -6.2239    9.7889 H       3  PIP33       0.0652
     20 ****        8.7368   -6.7336   11.2255 H       3  PIP33       0.0781
     21 ****        8.3922   -4.0417    9.7332 H       3  PIP33       0.0794
     22 ****        9.2170   -4.2790   11.2972 H       3  PIP33       0.0733
     23 ****        6.8550   -3.4763   11.6262 H       3  PIP33       0.0487
     24 ****        7.1284   -5.0776   12.3551 H       3  PIP33       0.0178
     25 ****        4.9912   -5.0936   11.1808 H       3  PIP33       0.0913
     26 ****        5.7110   -4.4985    9.6921 H       3  PIP33       0.0884
     27 S           5.6534  -10.4161   12.6086 S.O2    1  TOS11       2.2550
     28 O1          6.9356  -11.0168   12.2949 O.2     1  TOS11      -0.9250
     29 O2          4.6634  -11.1838   13.3388 O.2     1  TOS11      -0.9515
     30 C5          7.3615   -7.0789   14.1874 C.ar    4  NAPHTHALENE4   -0.2755
     31 C6          7.1831   -8.2898   13.5129 C.ar    4  NAPHTHALENE4   -0.1033
     32 C7          5.9148   -8.8729   13.4477 C.ar    4  NAPHTHALENE4   -0.4503
     33 C8          4.8235   -8.2196   14.0238 C.ar    4  NAPHTHALENE4   -0.1914
     34 C9          4.9955   -7.0033   14.6955 C.ar    4  NAPHTHALENE4    0.1766
     35 C10         6.2702   -6.4291   14.7774 C.ar    4  NAPHTHALENE4    0.2000
     36 H1          2.9087   -6.7961   15.2302 H       4  NAPHTHALENE4    0.1895
     37 C           5.4570   -7.5385   10.4646 C.2     2  APM22       0.4509
     38 CA          5.7034   -9.0079   10.1715 C.3     2  APM22       0.2575
     39 CB          5.3462   -9.4033    8.7099 C.3     2  APM22      -0.5315
     40 CG          4.0507   -8.7228    8.2344 C.ar    2  APM22       0.2141
     41 CD1         2.8160   -9.3846    8.2372 C.ar    2  APM22      -0.1611
     42 CD2         4.1099   -7.4040    7.7739 C.ar    2  APM22      -0.0261
     43 CE1         1.6420   -8.7185    7.8578 C.ar    2  APM22      -0.3711
     44 CE2         2.9465   -6.7194    7.4218 C.ar    2  APM22      -0.1856
     45 CZ          1.7120   -7.3675    7.4986 C.ar    2  APM22      -0.0540
     46 CF          0.3014   -9.4323    7.8263 C.3     2  APM22       1.1140
     47 O           4.4112   -7.3411   11.0641 O.2     2  APM22      -0.5810
     48 N           4.9185   -9.7991   11.1134 N.3     2  APM22      -0.9502
     49 NG1        -0.6799   -8.9323    7.1172 N.3     2  APM22      -1.0473
     50 NG2         0.1320  -10.5378    8.5057 N.3     2  APM22      -0.9987
     51 N1          6.2791   -6.4948   10.1259 N.am    3  PIP33      -0.2743
     52 C2          7.5491   -6.6968    9.4024 C.3     3  PIP33      -0.3272
     53 C3          8.6866   -6.1401   10.2969 C.3     3  PIP33       0.0115
     54 C4          8.4090   -4.6566   10.6491 C.3     3  PIP33      -0.1908
     55 C5          7.0587   -4.5359   11.3993 C.3     3  PIP33       0.0397
     56 C6          5.9028   -5.1400   10.5625 C.3     3  PIP33      -0.0379
     57 H2          3.2245   -4.6522   16.4159 H       4  NAPHTHALENE4    0.1635
     58 H3          5.4814   -3.6274   16.5562 H       4  NAPHTHALENE4    0.1656
     59 H4          7.4206   -4.7500   15.5148 H       4  NAPHTHALENE4    0.1970
     60 H5          8.3561   -6.6473   14.2464 H       4  NAPHTHALENE4    0.2100
     61 H6          8.0316   -8.7747   13.0424 H       4  NAPHTHALENE4    0.1896
     62 H8          3.8395   -8.6688   13.9434 H       4  NAPHTHALENE4    0.2187
     63 O           6.8355   -5.1506    7.7119 O.2     5  CO25       -0.6533
     64 O           8.5791   -6.5082    7.2369 O.3     5  CO25       -0.4990
     65 ****        8.6430   -5.9454    5.9066 C.3     5  CO25       -0.0086
     66 ****        9.6184   -5.4505    5.7879 H       5  CO25        0.0836
     67 ****        7.8573   -5.2318    5.6136 H       5  CO25        0.0502
     68 ****        8.5992   -6.7939    5.2083 H       5  CO25        0.1336
@<TRIPOS>BOND
     1    27    32    1
     2    30    31   ar
     3    30    35   ar
     4    30    60    1
     5    35     4   ar
     6    35    34   ar
     7    34     1   ar
     8    38     5    1
     9    39     6    1
    10    39     7    1
    11    41     8    1
    12    42     9    1
    13    44    10    1
    14    45    11    1
    15    48    12    1
    16    49    13    1
    17    49    14    1
    18    50    15    1
    19    50    16    1
    20    17    63    2
    21    52    18    1
    22    53    19    1
    23    53    20    1
    24    54    21    1
    25    54    22    1
    26    55    23    1
    27    55    24    1
    28    56    25    1
    29    56    26    1
    30    34    33   ar
    31    27    29    2
    32    27    28    2
    33    33    32   ar
    34    33    62    1
    35    32    31   ar
    36    31    61    1
    37     1     2   ar
    38     1    36    1
    39    37    47    2
    40    38    37    1
    41    38    48    1
    42    39    38    1
    43    40    39    1
    44    40    42   ar
    45    41    40   ar
    46    43    41   ar
    47    46    43    1
    48    43    45   ar
    49    45    44   ar
    50    44    42   ar
    51    46    50    1
    52    46    49    1
    53    51    56    1
    54    52    51    1
    55    53    52    1
    56    54    53    1
    57    54    55    1
    58    55    56    1
    59    37    51   am
    60    48    27    1
    61     2     3   ar
    62     2    57    1
    63     3     4   ar
    64     3    58    1
    65     4    59    1
    66    17    64    1
    67    52    17    1
    68    64    65    1
    69    65    66    1
    70    65    67    1
    71    65    68    1
