@<TRIPOS>MOLECULE
84x
 71 75 0 0 0
SMALL
USER_CHARGES

@<TRIPOS>ATOM
      1 C1          3.9939   -6.2211   15.1513 C.ar    4  NAPHTHALENE4   -0.2406
      2 C2          4.2661   -4.9934   15.7611 C.ar    4  NAPHTHALENE4   -0.1326
      3 C3          5.5681   -4.4870   15.7571 C.ar    4  NAPHTHALENE4   -0.0608
      4 C4          6.5958   -5.2119   15.1472 C.ar    4  NAPHTHALENE4   -0.3004
      5 ****        6.7707   -9.3849   10.3603 H       2  APM22       0.0953
      6 ****        5.4291  -10.4109    8.4290 H       2  APM22       0.1584
      7 ****        6.2901   -8.9423    7.9422 H       2  APM22       0.1104
      8 ****        3.0274  -10.4680    8.0609 H       2  APM22       0.2119
      9 ****        5.0916   -6.7467    7.7501 H       2  APM22       0.1781
     10 ****        2.9396   -5.5773    7.3692 H       2  APM22       0.2001
     11 ****        0.8189   -6.7341    7.7617 H       2  APM22       0.1632
     12 ****        3.9003   -9.8948   10.6554 H       2  APM22       0.3922
     13 ****       -1.5792   -9.4901    7.4964 H       2  APM22       0.5678
     14 ****       -0.6788   -8.0436    7.0353 H       2  APM22       0.5520
     15 ****        1.2149  -11.1326    8.9000 H       2  APM22       0.5451
     16 ****       -0.5004  -11.2513    8.5000 H       2  APM22       0.5737
     17 ****        7.6904   -6.3294    8.4431 H       3  PIP33       0.1155
     18 ****        7.9638   -7.8946    9.2225 H       3  PIP33       0.0930
     19 ****        9.8351   -6.3827    9.7892 H       3  PIP33       0.1325
     20 ****        8.8805   -6.8055   11.2344 H       3  PIP33       0.0643
     21 ****        9.5371   -3.0487   12.2128 H       5  PHENYL5     0.1274
     22 C           9.4034   -3.8686   10.2214 C.ar    5  PHENYL5     0.3737
     23 ****        7.1325   -3.4781   11.3858 H       3  PIP33       0.1024
     24 ****        7.3423   -5.0160   12.2634 H       3  PIP33       0.0600
     25 ****        5.2000   -5.0632   11.0378 H       3  PIP33       0.1250
     26 ****        6.0151   -4.6389    9.5179 H       3  PIP33       0.1001
     27 S           5.4089  -10.4445   12.5070 S.O2    1  TOS11       2.2676
     28 O1          6.6373  -11.1921   12.3197 O.2     1  TOS11      -0.9294
     29 O2          4.2817  -11.0700   13.1694 O.2     1  TOS11      -0.9593
     30 C5          7.3559   -7.1818   13.9395 C.ar    4  NAPHTHALENE4   -0.2540
     31 C6          7.0785   -8.3992   13.3127 C.ar    4  NAPHTHALENE4   -0.1196
     32 C7          5.7772   -8.9065   13.3142 C.ar    4  NAPHTHALENE4   -0.4471
     33 C8          4.7515   -8.1764   13.9204 C.ar    4  NAPHTHALENE4   -0.1961
     34 C9          5.0210   -6.9499   14.5375 C.ar    4  NAPHTHALENE4    0.1670
     35 C10         6.3283   -6.4457   14.5422 C.ar    4  NAPHTHALENE4    0.1949
     36 H1          2.9767   -6.6013   15.1594 H       4  NAPHTHALENE4    0.1895
     37 C           5.5790   -7.5711   10.4460 C.2     2  APM22       0.5342
     38 CA          5.7639   -9.0350   10.0868 C.3     2  APM22       0.3284
     39 CB          5.4784   -9.3215    8.5805 C.3     2  APM22      -0.4061
     40 CG          4.1592   -8.6578    8.1433 C.ar    2  APM22       0.1835
     41 CD1         2.9639   -9.3831    8.0458 C.ar    2  APM22      -0.1603
     42 CD2         4.1538   -7.2939    7.8330 C.ar    2  APM22      -0.0445
     43 CE1         1.7289   -8.7204    7.9241 C.ar    2  APM22      -0.3501
     44 CE2         2.9402   -6.6343    7.6323 C.ar    2  APM22      -0.1770
     45 CZ          1.7349   -7.3238    7.7722 C.ar    2  APM22      -0.0595
     46 CF          0.4198   -9.4999    7.9587 C.3     2  APM22       1.0968
     47 O           4.5504   -7.3250   11.0553 O.2     2  APM22      -0.6163
     48 N           4.8592   -9.8120   10.9236 N.3     2  APM22      -0.9892
     49 NG1        -0.6814   -8.9775    7.4687 N.3     2  APM22      -1.0350
     50 NG2         0.3772  -10.7051    8.4804 N.3     2  APM22      -1.0000
     51 N1          6.4603   -6.5806   10.1247 N.am    3  PIP33      -0.3953
     52 C2          7.7173   -6.8460    9.4155 C.3     3  PIP33      -0.0349
     53 C3          8.8538   -6.2549   10.2806 C.3     3  PIP33       0.0405
     54 N4          8.5519   -4.8602   10.5762 N.pl3   3  PIP33      -0.5975
     55 C5          7.2996   -4.5626   11.2654 C.3     3  PIP33       0.1497
     56 C6          6.1325   -5.1908   10.4621 C.3     3  PIP33      -0.0872
     57 C           9.8604   -2.9556   11.1839 C.ar    5  PHENYL5    -0.2657
     58 C          10.7329   -1.9242   10.8212 C.ar    5  PHENYL5    -0.0964
     59 C          11.1744   -1.8131    9.5014 C.ar    5  PHENYL5    -0.2095
     60 H2          3.4676   -4.4346   16.2394 H       4  NAPHTHALENE4    0.1681
     61 H3          5.7802   -3.5319   16.2268 H       4  NAPHTHALENE4    0.1644
     62 H4          7.6025   -4.8049   15.1488 H       4  NAPHTHALENE4    0.1949
     63 H5          8.3771   -6.8130   13.9518 H       4  NAPHTHALENE4    0.2023
     64 H6          7.8769   -8.9485   12.8263 H       4  NAPHTHALENE4    0.1968
     65 H8          3.7420   -8.5728   13.9050 H       4  NAPHTHALENE4    0.2240
     66 C          10.7308   -2.7274    8.5411 C.ar    5  PHENYL5    -0.0351
     67 C           9.8418   -3.7428    8.9003 C.ar    5  PHENYL5    -0.3730
     68 ****       11.0695   -1.2117   11.5673 H       5  PHENYL5     0.1593
     69 ****       11.8586   -1.0187    9.2225 H       5  PHENYL5     0.1621
     70 ****       11.0797   -2.6437    7.5159 H       5  PHENYL5     0.1440
     71 ****        9.4865   -4.4375    8.1445 H       5  PHENYL5     0.1841
@<TRIPOS>BOND
     1    27    32    1
     2    30    31   ar
     3    30    35   ar
     4    30    63    1
     5    35     4   ar
     6    35    34   ar
     7    34     1   ar
     8    38     5    1
     9    39     6    1
    10    39     7    1
    11    41     8    1
    12    42     9    1
    13    44    10    1
    14    45    11    1
    15    48    12    1
    16    49    13    1
    17    49    14    1
    18    50    15    1
    19    50    16    1
    20    52    17    1
    21    52    18    1
    22    53    19    1
    23    53    20    1
    24    54    22    1
    25    22    57   ar
    26    55    23    1
    27    55    24    1
    28    56    25    1
    29    56    26    1
    30    34    33   ar
    31    27    29    2
    32    27    28    2
    33    33    32   ar
    34    33    65    1
    35    32    31   ar
    36    31    64    1
    37     1     2   ar
    38     1    36    1
    39    37    47    2
    40    38    37    1
    41    38    48    1
    42    39    38    1
    43    40    39    1
    44    40    42   ar
    45    41    40   ar
    46    43    41   ar
    47    46    43    1
    48    43    45   ar
    49    45    44   ar
    50    44    42   ar
    51    46    50    1
    52    46    49    1
    53    51    56    1
    54    52    51    1
    55    53    52    1
    56    54    53    1
    57    54    55    1
    58    55    56    1
    59    37    51   am
    60    48    27    1
    61    22    67   ar
    62    67    66   ar
    63    66    59   ar
    64     2     3   ar
    65     2    60    1
    66     3     4   ar
    67     3    61    1
    68     4    62    1
    69    59    58   ar
    70    58    57   ar
    71    57    21    1
    72    58    68    1
    73    59    69    1
    74    66    70    1
    75    67    71    1
