@<TRIPOS>MOLECULE
348401
 29 32 0 0 0
SMALL
GASTEIGER
Energy = 0

@<TRIPOS>ATOM
      1 C           5.0282    1.7650    1.0099 C.ar    1  LIG11      -0.0281
      2 C           4.5988    0.5229    1.6983 C.ar    1  LIG11      -0.0435
      3 C           3.9888   -0.4814    1.0563 C.ar    1  LIG11       0.0452
      4 C           3.7642   -0.3192   -0.3860 C.ar    1  LIG11       0.1501
      5 C           4.1757    0.8948   -1.0509 C.ar    1  LIG11       0.1653
      6 C           4.8378    1.9787   -0.3046 C.ar    1  LIG11       0.1569
      7 N           5.1994    3.0652   -0.9405 N.pl3   1  LIG11       0.0587
      8 O           5.7394    3.9290   -0.2816 O.2     1  LIG11      -0.1261
      9 O           5.0058    3.2213   -2.1246 O.2     1  LIG11      -0.1261
     10 N           3.8903    0.8505   -2.2844 N.ar    1  LIG11      -0.0466
     11 O           3.2865   -0.4210   -2.4171 O.2     1  LIG11      -0.2415
     12 N           3.2320   -1.1327   -1.1971 N.ar    1  LIG11      -0.0477
     13 S           3.4702   -1.9509    1.9305 S.3     1  LIG11      -0.0653
     14 C           1.9594   -2.2735    1.0650 C.ar    1  LIG11       0.1342
     15 C           1.0704   -1.2479    0.7582 C.ar    1  LIG11       0.1398
     16 C          -0.1113   -1.4858    0.0755 C.ar    1  LIG11       0.1639
     17 N          -0.7190   -0.2840   -0.0621 N.ar    1  LIG11      -0.3291
     18 C           0.0501    0.6092    0.5028 C.ar    1  LIG11       0.0957
     19 N           1.0921    0.0729    0.9863 N.ar    1  LIG11      -0.2316
     20 N          -0.4332   -2.7354   -0.3032 N.ar    1  LIG11      -0.1952
     21 C           0.4300   -3.7321    0.0006 C.ar    1  LIG11       0.2155
     22 N           1.5890   -3.5122    0.6692 N.ar    1  LIG11      -0.2057
     23 N           0.1272   -4.9911   -0.3752 N.pl3   1  LIG11      -0.3274
     24 H           5.5139    2.5116    1.6389 H       1  LIG11       0.0641
     25 H           4.7838    0.4296    2.7690 H       1  LIG11       0.0630
     26 H          -1.6204   -0.1159   -0.5287 H       1  LIG11       0.1682
     27 H          -0.1544    1.6794    0.5636 H       1  LIG11       0.1027
     28 H          -0.7469   -5.1800   -0.8841 H       1  LIG11       0.1452
     29 H           0.7714   -5.7624   -0.1537 H       1  LIG11       0.1452
@<TRIPOS>BOND
     1    11    10   ar
     2    11    12   ar
     3    10     5   ar
     4     9     7    2
     5    12     4   ar
     6     5     4   ar
     7     5     6   ar
     8     7     6    1
     9     7     8    2
    10    28    23    1
    11    26    17    1
    12     4     3   ar
    13    23    29    1
    14    23    21    1
    15     6     1   ar
    16    20    21   ar
    17    20    16   ar
    18    17    16   ar
    19    17    18   ar
    20    21    22   ar
    21    16    15   ar
    22    18    27    1
    23    18    19   ar
    24    22    14   ar
    25    15    19   ar
    26    15    14   ar
    27     1    24    1
    28     1     2   ar
    29     3     2   ar
    30     3    13    1
    31    14    13    1
    32     2    25    1
