@<TRIPOS>MOLECULE
42375
 34 36 0 0 0
SMALL
GASTEIGER
Energy = 0

@<TRIPOS>ATOM
      1 C           3.9188   -3.0699   -2.0032 C.3     1  LIG11      -0.0470
      2 C           5.0580   -2.6107   -1.0608 C.3     1  LIG11       0.0226
      3 N           4.8017   -1.2459   -0.6163 N.ar    1  LIG11      -0.3211
      4 C           5.1927   -0.1068   -1.2167 C.ar    1  LIG11       0.1099
      5 N           4.8420    0.8919   -0.5630 N.ar    1  LIG11      -0.2087
      6 C           4.1609    0.5492    0.6122 C.ar    1  LIG11       0.2473
      7 C           4.1585   -0.8661    0.6040 C.ar    1  LIG11       0.1332
      8 S           3.4976   -1.9407    1.8620 S.3     1  LIG11      -0.0458
      9 C           1.9645   -2.2717    1.0524 C.ar    1  LIG11       0.1355
     10 C           1.0730   -1.2467    0.7534 C.ar    1  LIG11       0.1399
     11 C          -0.1092   -1.4853    0.0716 C.ar    1  LIG11       0.1639
     12 N          -0.7184   -0.2840   -0.0628 N.ar    1  LIG11      -0.3291
     13 C           0.0472    0.6088    0.5073 C.ar    1  LIG11       0.0957
     14 N           1.0896    0.0728    0.9930 N.ar    1  LIG11      -0.2316
     15 N          -0.4299   -2.7349   -0.3079 N.ar    1  LIG11      -0.1952
     16 C           0.4272   -3.7337    0.0061 C.ar    1  LIG11       0.2155
     17 N           1.5835   -3.5141    0.6793 N.ar    1  LIG11      -0.2057
     18 N           0.1223   -4.9937   -0.3642 N.pl3   1  LIG11      -0.3274
     19 N           3.6539    1.3735    1.4858 N.pl3   1  LIG11       0.0778
     20 O           3.7966    2.5481    1.2299 O.2     1  LIG11      -0.1245
     21 O           3.0603    1.0035    2.4731 O.2     1  LIG11      -0.1245
     22 C           5.9731   -0.0117   -2.4987 C.3     1  LIG11      -0.0062
     23 H           5.1033   -3.2801   -0.1864 H       1  LIG11       0.0490
     24 H           6.0273   -2.6734   -1.5805 H       1  LIG11       0.0490
     25 H           6.9902   -0.3978   -2.3389 H       1  LIG11       0.0307
     26 H           6.0397    1.0382   -2.8209 H       1  LIG11       0.0307
     27 H           5.4835   -0.5922   -3.2925 H       1  LIG11       0.0307
     28 H          -1.6191   -0.1158   -0.5312 H       1  LIG11       0.1682
     29 H          -0.1617    1.6785    0.5700 H       1  LIG11       0.1027
     30 H           3.8801   -2.4352   -2.9005 H       1  LIG11       0.0247
     31 H           2.9498   -2.9978   -1.4892 H       1  LIG11       0.0247
     32 H           4.0773   -4.1139   -2.3156 H       1  LIG11       0.0247
     33 H          -0.7496   -5.1825   -0.8769 H       1  LIG11       0.1452
     34 H           0.7616   -5.7663   -0.1333 H       1  LIG11       0.1452
@<TRIPOS>BOND
     1    27    22    1
     2    30     1    1
     3    26    22    1
     4    22    25    1
     5    22     4    1
     6    32     1    1
     7     1    31    1
     8     1     2    1
     9    24     2    1
    10     4     3   ar
    11     4     5   ar
    12     2     3    1
    13     2    23    1
    14    33    18    1
    15     3     7   ar
    16     5     6   ar
    17    28    12    1
    18    18    34    1
    19    18    16    1
    20    15    16   ar
    21    15    11   ar
    22    12    11   ar
    23    12    13   ar
    24    16    17   ar
    25    11    10   ar
    26    13    29    1
    27    13    14   ar
    28     7     6   ar
    29     7     8    1
    30     6    19    1
    31    17     9   ar
    32    10    14   ar
    33    10     9   ar
    34     9     8    1
    35    20    19    2
    36    19    21    2
