@<TRIPOS>MOLECULE
48388
 32 35 0 0 0
SMALL
GASTEIGER
Energy = 0

@<TRIPOS>ATOM
      1 C           0.0514    0.6096    0.4978 C.ar    1  LIG11       0.0957
      2 N          -0.7095   -0.2826   -0.0783 N.ar    1  LIG11      -0.3292
      3 C          -0.1096   -1.4858    0.0774 C.ar    1  LIG11       0.1619
      4 C           1.0698   -1.2473    0.7649 C.ar    1  LIG11       0.1394
      5 N           1.0796    0.0705    1.0061 N.ar    1  LIG11      -0.2316
      6 C           1.9685   -2.2708    1.0492 C.ar    1  LIG11       0.1277
      7 N           1.5902   -3.5109    0.6635 N.ar    1  LIG11      -0.2269
      8 C           0.4241   -3.7356    0.0071 C.ar    1  LIG11       0.1196
      9 N          -0.4371   -2.7358   -0.2952 N.ar    1  LIG11      -0.2163
     10 S           3.5134   -1.9678    1.8643 S.3     1  LIG11      -0.1019
     11 C           4.2064   -0.5490    0.9452 C.3     1  LIG11       0.0178
     12 C           4.4868   -0.8704   -0.5491 C.3     1  LIG11       0.0345
     13 N           3.2547   -1.1030   -1.3198 N.ar    1  LIG11      -0.3233
     14 C           2.9297   -2.3392   -1.6618 C.ar    1  LIG11       0.0991
     15 N           1.8878   -2.6377   -2.3340 N.ar    1  LIG11      -0.2180
     16 C           0.9813   -1.6053   -2.7514 C.ar    1  LIG11       0.1618
     17 C           1.2752   -0.3515   -2.4319 C.ar    1  LIG11       0.1384
     18 C           2.5034   -0.0756   -1.6767 C.ar    1  LIG11       0.1173
     19 S           2.8695    1.5613   -1.3144 S.2     1  LIG11      -0.0302
     20 N           0.1528    0.3433   -3.0044 N.ar    1  LIG11      -0.2317
     21 C          -0.6184   -0.4894   -3.5562 C.ar    1  LIG11       0.0957
     22 N          -0.1393   -1.6927   -3.4184 N.ar    1  LIG11      -0.3292
     23 H          -1.5930   -0.1103   -0.5753 H       1  LIG11       0.1682
     24 H          -0.1452    1.6819    0.5463 H       1  LIG11       0.1027
     25 H           0.1747   -4.7492   -0.2859 H       1  LIG11       0.1048
     26 H           5.1574   -0.2993    1.4419 H       1  LIG11       0.0398
     27 H           3.5405    0.3165    1.0569 H       1  LIG11       0.0398
     28 H           5.1687   -1.7361   -0.5782 H       1  LIG11       0.0500
     29 H           5.0470   -0.0348   -1.0009 H       1  LIG11       0.0500
     30 H          -0.5615   -2.5645   -3.7643 H       1  LIG11       0.1682
     31 H          -1.5439   -0.2170   -4.0661 H       1  LIG11       0.1027
     32 H           3.5323   -3.2054   -1.3851 H       1  LIG11       0.1030
@<TRIPOS>BOND
     1    31    21    1
     2    30    22    1
     3    21    22   ar
     4    21    20   ar
     5    22    16   ar
     6    20    17   ar
     7    16    17   ar
     8    16    15   ar
     9    17    18   ar
    10    15    14   ar
    11    18    13   ar
    12    18    19    2
    13    14    32    1
    14    14    13   ar
    15    13    12    1
    16    29    12    1
    17    28    12    1
    18    23     2    1
    19    12    11    1
    20     9     8   ar
    21     9     3   ar
    22    25     8    1
    23     2     3   ar
    24     2     1   ar
    25     8     7   ar
    26     3     4   ar
    27     1    24    1
    28     1     5   ar
    29     7     6   ar
    30     4     5   ar
    31     4     6   ar
    32    11    27    1
    33    11    26    1
    34    11    10    1
    35     6    10    1
