@<TRIPOS>MOLECULE
R12
 10 10 0 0 0
SMALL
GASTEIGER
Energy = 0

@<TRIPOS>ATOM
      1 O          -1.1024    1.2698    0.9269 O.3     1  LIG11      -0.4555
      2 C          -0.4034    2.0884    0.0442 C.2     1  LIG11       0.3473
      3 C           0.8134    1.3598   -0.4269 C.2     1  LIG11       0.1149
      4 C           0.8227    0.1400    0.1708 C.2     1  LIG11       0.0534
      5 C          -0.3930    0.0154    1.0631 C.3     1  LIG11       0.1254
      6 H          -1.0885   -0.7973    0.7312 H       1  LIG11       0.0754
      7 H          -0.1235   -0.0966    2.1446 H       1  LIG11       0.0754
      8 BR          2.0515   -1.2062   -0.0015 Br      1  LIG11      -0.0501
      9 BR          2.0234    2.0649   -1.6030 Br      1  LIG11      -0.0420
     10 O          -0.8762    3.1892   -0.1795 O.2     1  LIG11      -0.2443
@<TRIPOS>BOND
     1     9     3    1
     2     3     2    1
     3     3     4    2
     4    10     2    2
     5     8     4    1
     6     2     1    1
     7     4     5    1
     8     6     5    1
     9     1     5    1
    10     5     7    1
