@<TRIPOS>MOLECULE
R3
 13 13 0 0 0
SMALL
GASTEIGER
Energy = 0

@<TRIPOS>ATOM
      1 O          -1.1023    1.2705    0.9254 O.3     1  LIG11      -0.4560
      2 C          -0.4070    2.0894    0.0453 C.2     1  LIG11       0.3510
      3 C           0.8095    1.3592   -0.4247 C.2     1  LIG11       0.1290
      4 C           0.8257    0.1368    0.1709 C.2     1  LIG11       0.0164
      5 C          -0.3902    0.0137    1.0628 C.3     1  LIG11       0.1176
      6 H          -1.0884   -0.7960    0.7324 H       1  LIG11       0.0747
      7 H          -0.1223   -0.0947    2.1451 H       1  LIG11       0.0747
      8 C           1.8213   -0.9234    0.0156 C.3     1  LIG11       0.0959
      9 H           2.6272   -0.6107   -0.6956 H       1  LIG11       0.0585
     10 BR          1.0544   -2.5245   -0.7355 Br      1  LIG11      -0.0709
     11 BR          2.7167   -1.3179    1.6765 Br      1  LIG11      -0.0709
     12 CL          1.8923    2.0255   -1.4934 Cl      1  LIG11      -0.0760
     13 O          -0.8746    3.1930   -0.1813 O.2     1  LIG11      -0.2440
@<TRIPOS>BOND
     1    12     3    1
     2    10     8    1
     3     9     8    1
     4     3     2    1
     5     3     4    2
     6    13     2    2
     7     8     4    1
     8     8    11    1
     9     2     1    1
    10     4     5    1
    11     6     5    1
    12     1     5    1
    13     5     7    1
