@<TRIPOS>MOLECULE
R6
 13 13 0 0 0
SMALL
GASTEIGER
Energy = 0

@<TRIPOS>ATOM
      1 O          -1.1038    1.2687    0.9252 O.3     1  LIG11      -0.4563
      2 C          -0.4021    2.0878    0.0441 C.2     1  LIG11       0.3465
      3 C           0.8141    1.3600   -0.4277 C.2     1  LIG11       0.1049
      4 C           0.8218    0.1388    0.1708 C.2     1  LIG11      -0.0014
      5 C          -0.3918    0.0170    1.0645 C.3     1  LIG11       0.1162
      6 H          -1.0843   -0.7978    0.7368 H       1  LIG11       0.0746
      7 H          -0.1185   -0.0928    2.1446 H       1  LIG11       0.0746
      8 C           1.7796   -0.9560    0.0344 C.3     1  LIG11       0.0291
      9 H           2.3179   -0.9124   -0.9444 H       1  LIG11       0.0429
     10 H           1.2687   -1.9462    0.1276 H       1  LIG11       0.0429
     11 BR          3.1332   -0.9042    1.4076 Br      1  LIG11      -0.0869
     12 BR          2.0172    2.0837   -1.6030 Br      1  LIG11      -0.0428
     13 O          -0.8771    3.1902   -0.1784 O.2     1  LIG11      -0.2444
@<TRIPOS>BOND
     1    12     3    1
     2     9     8    1
     3     3     2    1
     4     3     4    2
     5    13     2    2
     6     8    10    1
     7     8     4    1
     8     8    11    1
     9     2     1    1
    10     4     5    1
    11     6     5    1
    12     1     5    1
    13     5     7    1
