@<TRIPOS>MOLECULE
S5
 14 14 0 0 0
SMALL
GASTEIGER
Energy = 0

@<TRIPOS>ATOM
      1 O          -1.1101    1.2633    0.9167 O.3     1  LIG11      -0.4273
      2 C          -0.4039    2.0885    0.0424 C.2     1  LIG11       0.3487
      3 C           0.8172    1.3611   -0.4270 C.2     1  LIG11       0.1077
      4 C           0.8249    0.1385    0.1590 C.2     1  LIG11       0.0289
      5 C          -0.3936    0.0207    1.0817 C.3     1  LIG11       0.2277
      6 H          -0.1318   -0.1221    2.1634 H       1  LIG11       0.1108
      7 O          -1.2955   -0.9779    0.7287 O.3     1  LIG11      -0.3542
      8 H          -1.7459   -0.7166   -0.0875 H       1  LIG11       0.2139
      9 C           1.7650   -0.9693    0.0216 C.3     1  LIG11       0.0318
     10 H           1.2405   -1.9465    0.1766 H       1  LIG11       0.0430
     11 H           2.2612   -0.9684   -0.9809 H       1  LIG11       0.0430
     12 BR          3.1757   -0.8808    1.3346 Br      1  LIG11      -0.0868
     13 BR          2.0223    2.0941   -1.5959 Br      1  LIG11      -0.0427
     14 O          -0.8734    3.1904   -0.1743 O.2     1  LIG11      -0.2443
@<TRIPOS>BOND
     1    13     3    1
     2    11     9    1
     3     3     2    1
     4     3     4    2
     5    14     2    2
     6     8     7    1
     7     9     4    1
     8     9    10    1
     9     9    12    1
    10     2     1    1
    11     4     5    1
    12     7     5    1
    13     1     5    1
    14     5     6    1
