@<TRIPOS>MOLECULE
15x
 62 64 0 0 0
SMALL
USER_CHARGES

@<TRIPOS>ATOM
      1 ****        3.8726   -8.6955   14.0680 H       1  TOS11       0.1887
      2 ****        4.0703   -6.5360   15.2431 H       1  TOS11       0.1994
      3 ****        8.2813   -6.4678   14.3971 H       1  TOS11       0.2045
      4 ****        8.0781   -8.6305   13.2189 H       1  TOS11       0.1821
      5 ****        6.3181   -4.9483   15.5430 C.3     1  TOS11      -0.3793
      6 ****        5.3550   -4.5825   15.9262 H       1  TOS11       0.1186
      7 ****        6.6963   -4.2182   14.8168 H       1  TOS11       0.1148
      8 ****        6.7591   -9.2883   10.4337 H       2  APM22       0.1302
      9 ****        5.2320  -10.4540    8.6687 H       2  APM22       0.1806
     10 ****        6.1556   -9.0737    8.0997 H       2  APM22       0.1468
     11 ****        2.7892  -10.3130    8.5693 H       2  APM22       0.2053
     12 ****        5.1088   -6.8165    7.7481 H       2  APM22       0.1795
     13 ****        3.1013   -5.6839    6.8883 H       2  APM22       0.1986
     14 ****        0.9061   -6.7482    7.0353 H       2  APM22       0.1639
     15 ****        4.0292  -10.0745   11.0541 H       2  APM22       0.3743
     16 ****       -1.5631   -9.5201    6.9290 H       2  APM22       0.5656
     17 ****       -0.5058   -8.2994    6.2256 H       2  APM22       0.5545
     18 ****        0.7211  -10.6424    9.3096 H       2  APM22       0.5402
     19 ****       -0.8564  -10.8645    8.5591 H       2  APM22       0.5724
     20 ****        7.5650   -6.2714    8.4253 H       3  PIP33       0.1181
     21 ****        7.8218   -7.8503    9.1853 H       3  PIP33       0.1049
     22 ****        9.6688   -6.3264    9.7663 H       3  PIP33       0.0878
     23 ****        8.7501   -6.7956   11.2215 H       3  PIP33       0.0502
     24 ****        8.4308   -4.1568    9.6561 H       3  PIP33       0.0605
     25 C25         9.5586   -4.1284   11.5009 C.3     3  PIP33      -0.5005
     26 ****        6.8205   -3.5109   11.4729 H       3  PIP33       0.0677
     27 ****        7.0159   -5.1151   12.2220 H       3  PIP33       0.0603
     28 ****        4.9468   -5.0389   10.8519 H       3  PIP33       0.1280
     29 ****        5.8822   -4.5955    9.4165 H       3  PIP33       0.0988
     30 S           5.7522  -10.3454   12.6842 S.O2    1  TOS11       2.2445
     31 O1          7.0620  -10.8857   12.3710 O.2     1  TOS11      -0.9263
     32 O2          4.8276  -11.1687   13.4419 O.2     1  TOS11      -0.9585
     33 C1          5.9538   -8.8030   13.5493 C.ar    1  TOS11      -0.5115
     34 C2          4.8367   -8.2033   14.1320 C.ar    1  TOS11      -0.0464
     35 C3          4.9513   -6.9758   14.7899 C.ar    1  TOS11      -0.2502
     36 C4          6.1845   -6.3209   14.8665 C.ar    1  TOS11       0.3067
     37 C5          7.3103   -6.9425   14.3137 C.ar    1  TOS11      -0.2771
     38 C6          7.1975   -8.1703   13.6531 C.ar    1  TOS11      -0.0275
     39 ****        7.0244   -5.0094   16.3857 H       1  TOS11       0.1221
     40 C           5.4695   -7.5601   10.5171 C.2     2  APM22       0.7060
     41 CA          5.7108   -9.0294   10.2471 C.3     2  APM22       0.2243
     42 CB          5.3327   -9.3647    8.7657 C.3     2  APM22      -0.4871
     43 CG          4.0631   -8.6436    8.2512 C.ar    2  APM22       0.1960
     44 CD1         2.8154   -9.2852    8.2330 C.ar    2  APM22      -0.1404
     45 CD2         4.1563   -7.3326    7.7679 C.ar    2  APM22      -0.0574
     46 CE1         1.6428   -8.6506    7.7835 C.ar    2  APM22      -0.3680
     47 CE2         3.0150   -6.6868    7.2967 C.ar    2  APM22      -0.1670
     48 CZ          1.7675   -7.3236    7.3479 C.ar    2  APM22      -0.0626
     49 CF          0.2984   -9.3742    7.7662 C.3     2  APM22       1.1098
     50 O           4.4540   -7.3258   11.1453 O.2     2  APM22      -0.6447
     51 N           4.9906   -9.8367   11.2330 N.3     2  APM22      -0.9231
     52 NG1        -0.6478   -9.0420    6.9202 N.3     2  APM22      -1.0392
     53 NG2         0.0412  -10.3568    8.5973 N.3     2  APM22      -0.9939
     54 N1          6.2952   -6.5488   10.0848 N.am    3  PIP33      -0.4971
     55 C2          7.5688   -6.7977    9.3964 C.3     3  PIP33      -0.0782
     56 C3          8.7017   -6.2165   10.2857 C.3     3  PIP33      -0.1279
     57 C4          8.4304   -4.7226   10.6066 C.3     3  PIP33       0.1550
     58 C5          7.0344   -4.5702   11.2698 C.3     3  PIP33      -0.0718
     59 C6          5.9265   -5.1627   10.3643 C.3     3  PIP33      -0.0914
     60 ****       10.5406   -4.2243   11.0040 H       3  PIP33       0.1304
     61 ****        9.6088   -4.6501   12.4694 H       3  PIP33       0.1302
     62 ****        9.3780   -3.0564   11.6914 H       3  PIP33       0.1278
@<TRIPOS>BOND
     1    34     1    1
     2    35     2    1
     3    37     3    1
     4    38     4    1
     5    36     5    1
     6     5     6    1
     7     5     7    1
     8    41     8    1
     9    42     9    1
    10    42    10    1
    11    44    11    1
    12    45    12    1
    13    47    13    1
    14    48    14    1
    15    51    15    1
    16    52    16    1
    17    52    17    1
    18    53    18    1
    19    53    19    1
    20    55    20    1
    21    55    21    1
    22    56    22    1
    23    56    23    1
    24    57    24    1
    25    57    25    1
    26    58    26    1
    27    58    27    1
    28    59    28    1
    29    59    29    1
    30    33    30    1
    31    30    32    2
    32    30    31    2
    33    33    38   ar
    34    34    33   ar
    35    35    34   ar
    36    36    35   ar
    37     5    39    1
    38    36    37   ar
    39    37    38   ar
    40    40    50    2
    41    41    40    1
    42    41    51    1
    43    42    41    1
    44    43    42    1
    45    43    45   ar
    46    44    43   ar
    47    46    44   ar
    48    49    46    1
    49    46    48   ar
    50    48    47   ar
    51    47    45   ar
    52    49    53    1
    53    49    52    1
    54    54    59    1
    55    55    54    1
    56    56    55    1
    57    57    56    1
    58    57    58    1
    59    58    59    1
    60    40    54   am
    61    51    30    1
    62    25    60    1
    63    25    61    1
    64    25    62    1
