@<TRIPOS>MOLECULE
17x
 73 76 0 0 0
SMALL
USER_CHARGES

@<TRIPOS>ATOM
      1 C1          3.9340   -6.4861   15.5694 C.3     4  NAPHTHALENE4   -0.1364
      2 C2          4.2186   -4.9960   15.8805 C.3     4  NAPHTHALENE4   -0.2309
      3 C3          5.6779   -4.8026   16.3793 C.3     4  NAPHTHALENE4    0.6286
      4 ****        6.7750   -9.3098   10.3975 H       2  APM22       0.1313
      5 ****        5.2412  -10.4896    8.6623 H       2  APM22       0.1790
      6 ****        6.1598   -9.1114    8.0515 H       2  APM22       0.1498
      7 ****        2.7966  -10.3796    8.5155 H       2  APM22       0.2031
      8 ****        5.1088   -6.8543    7.7463 H       2  APM22       0.1880
      9 ****        3.0746   -5.6745    7.0058 H       2  APM22       0.1998
     10 ****        0.8779   -6.7573    7.1779 H       2  APM22       0.1644
     11 ****        3.9786   -9.9462   11.0069 H       2  APM22       0.3774
     12 ****       -1.5838   -9.3729    7.0517 H       2  APM22       0.5650
     13 ****       -0.5345   -8.0711    6.4828 H       2  APM22       0.5490
     14 ****        0.8801  -10.8531    9.0938 H       2  APM22       0.5346
     15 ****       -0.7686  -10.9731    8.4710 H       2  APM22       0.5674
     16 ****        7.5541   -6.2230    8.4330 H       3  PIP33       0.1057
     17 ****        7.8165   -7.8162    9.1371 H       3  PIP33       0.0900
     18 ****        9.6654   -6.3164    9.7767 H       3  PIP33       0.0952
     19 ****        8.7265   -6.8052   11.2163 H       3  PIP33       0.0643
     20 ****        8.4433   -4.1396    9.6900 H       3  PIP33       0.0670
     21 C21         9.5348   -4.1783   11.5700 C.3     3  PIP33      -0.5088
     22 ****        6.8185   -3.4938   11.4720 H       3  PIP33       0.0714
     23 ****        7.0145   -5.0860   12.2553 H       3  PIP33       0.0757
     24 ****        4.9513   -5.0510   10.8935 H       3  PIP33       0.1295
     25 ****        5.8673   -4.6001    9.4445 H       3  PIP33       0.0927
     26 S           5.7064  -10.4679   12.6109 S.O2    1  TOS11       2.2933
     27 O1          6.9871  -11.0609   12.2756 O.2     1  TOS11      -0.9433
     28 O2          4.7285  -11.2471   13.3446 O.2     1  TOS11      -0.9608
     29 O4          6.5870   -5.2576   15.3654 O.3     4  NAPHTHALENE4   -0.5270
     30 C5          7.4341   -7.1237   14.1125 C.ar    4  NAPHTHALENE4   -0.3907
     31 C6          7.2390   -8.3334   13.4435 C.ar    4  NAPHTHALENE4    0.0264
     32 C7          5.9819   -8.9420   13.4693 C.ar    4  NAPHTHALENE4   -0.5797
     33 C8          4.9241   -8.3275   14.1444 C.ar    4  NAPHTHALENE4   -0.1121
     34 C9          5.1122   -7.1139   14.8133 C.ar    4  NAPHTHALENE4   -0.0822
     35 C10         6.3715   -6.5008   14.7735 C.ar    4  NAPHTHALENE4    0.4963
     36 C           5.4901   -7.5670   10.5007 C.2     2  APM22       0.6381
     37 CA          5.7282   -9.0339   10.2063 C.3     2  APM22       0.2726
     38 CB          5.3500   -9.3966    8.7393 C.3     2  APM22      -0.4966
     39 CG          4.0749   -8.6857    8.2466 C.ar    2  APM22       0.2053
     40 CD1         2.8343   -9.3371    8.2240 C.ar    2  APM22      -0.1377
     41 CD2         4.1540   -7.3664    7.7883 C.ar    2  APM22      -0.0708
     42 CE1         1.6661   -8.6744    7.8191 C.ar    2  APM22      -0.3432
     43 CE2         3.0037   -6.6939    7.3733 C.ar    2  APM22      -0.1679
     44 CZ          1.7619   -7.3316    7.4322 C.ar    2  APM22      -0.0652
     45 CF          0.3201   -9.3850    7.7921 C.3     2  APM22       1.0622
     46 O           4.4783   -7.3443   11.1474 O.2     2  APM22      -0.6260
     47 N           4.9620   -9.8358   11.1542 N.3     2  APM22      -0.9562
     48 NG1        -0.6622   -8.9094    7.0659 N.3     2  APM22      -1.0196
     49 NG2         0.1347  -10.4755    8.4939 N.3     2  APM22      -0.9735
     50 N1          6.3028   -6.5482   10.0891 N.am    3  PIP33      -0.4839
     51 C2          7.5679   -6.7781    9.3842 C.3     3  PIP33      -0.0346
     52 C3          8.6928   -6.2147   10.2869 C.3     3  PIP33      -0.1565
     53 C4          8.4267   -4.7224   10.6282 C.3     3  PIP33       0.1338
     54 C5          7.0294   -4.5605   11.2883 C.3     3  PIP33      -0.0780
     55 C6          5.9242   -5.1648   10.3889 C.3     3  PIP33      -0.0877
     56 ****       10.5246   -4.2781   11.0981 H       3  PIP33       0.1328
     57 ****        9.5403   -4.7393   12.5171 H       3  PIP33       0.1395
     58 ****        9.3605   -3.1145   11.7938 H       3  PIP33       0.1303
     59 H5          8.4165   -6.6623   14.1145 H       4  NAPHTHALENE4    0.2419
     60 H6          8.0617   -8.7944   12.9074 H       4  NAPHTHALENE4    0.1905
     61 H8          3.9477   -8.7987   14.1474 H       4  NAPHTHALENE4    0.2128
     62 ****        3.7698   -7.0605   16.4947 H       4  NAPHTHALENE4    0.0781
     63 ****        3.0142   -6.5626   14.9660 H       4  NAPHTHALENE4    0.0956
     64 ****        4.0840   -4.4224   14.9487 H       4  NAPHTHALENE4    0.0688
     65 ****        3.4961   -4.6163   16.6219 H       4  NAPHTHALENE4    0.1009
     66 C18         5.9889   -3.2887   16.5308 C.3     4  NAPHTHALENE4   -0.4474
     67 C19         5.9412   -5.5436   17.7234 C.3     4  NAPHTHALENE4   -0.3599
     68 ****        5.3318   -2.8251   17.2812 H       4  NAPHTHALENE4    0.1214
     69 ****        5.8408   -2.7769   15.5665 H       4  NAPHTHALENE4    0.0977
     70 ****        7.0371   -3.1407   16.8337 H       4  NAPHTHALENE4    0.1384
     71 ****        5.2429   -5.1849   18.4953 H       4  NAPHTHALENE4    0.1074
     72 ****        6.9681   -5.3503   18.0688 H       4  NAPHTHALENE4    0.1038
     73 ****        5.8262   -6.6331   17.6284 H       4  NAPHTHALENE4    0.0817
@<TRIPOS>BOND
     1    26    32    1
     2    30    31   ar
     3    30    35   ar
     4    30    59    1
     5    35    29    1
     6    35    34   ar
     7    34     1    1
     8    37     4    1
     9    38     5    1
    10    38     6    1
    11    40     7    1
    12    41     8    1
    13    43     9    1
    14    44    10    1
    15    47    11    1
    16    48    12    1
    17    48    13    1
    18    49    14    1
    19    49    15    1
    20    51    16    1
    21    51    17    1
    22    52    18    1
    23    52    19    1
    24    53    20    1
    25    53    21    1
    26    54    22    1
    27    54    23    1
    28    55    24    1
    29    55    25    1
    30    34    33   ar
    31    26    28    2
    32    26    27    2
    33    33    61    1
    34    33    32   ar
    35    32    31   ar
    36    31    60    1
    37     1    63    1
    38    36    46    2
    39    37    36    1
    40    37    47    1
    41    38    37    1
    42    39    38    1
    43    39    41   ar
    44    40    39   ar
    45    42    40   ar
    46    45    42    1
    47    42    44   ar
    48    44    43   ar
    49    43    41   ar
    50    45    49    1
    51    45    48    1
    52    50    55    1
    53    51    50    1
    54    52    51    1
    55    53    52    1
    56    53    54    1
    57    54    55    1
    58    36    50   am
    59    47    26    1
    60    21    56    1
    61    21    57    1
    62    21    58    1
    63     1    62    1
    64     1     2    1
    65     2     3    1
    66     2    65    1
    67     2    64    1
    68     3    67    1
    69     3    66    1
    70     3    29    1
    71    66    70    1
    72    66    69    1
    73    66    68    1
    74    67    73    1
    75    67    72    1
    76    67    71    1
