@<TRIPOS>MOLECULE
24x
 62 65 0 0 0
SMALL
USER_CHARGES

@<TRIPOS>ATOM
      1 C1          3.9000   -6.3674   15.3069 C.ar    4  NAPHTHALENE4   -0.2300
      2 C2          4.0662   -5.1507   15.9735 C.ar    4  NAPHTHALENE4   -0.1382
      3 C3          5.3336   -4.5693   16.0578 C.ar    4  NAPHTHALENE4   -0.0466
      4 C4          6.4329   -5.2056   15.4751 C.ar    4  NAPHTHALENE4   -0.3334
      5 ****        6.7750   -9.3075   10.3984 H       2  APM22       0.1204
      6 ****        5.2373  -10.4871    8.6672 H       2  APM22       0.1630
      7 ****        6.1576   -9.1096    8.0573 H       2  APM22       0.1377
      8 ****        2.7957  -10.3745    8.5182 H       2  APM22       0.2021
      9 ****        5.1083   -6.8513    7.7478 H       2  APM22       0.1799
     10 ****        3.0770   -5.6775    6.9894 H       2  APM22       0.1971
     11 ****        0.8806   -6.7558    7.1638 H       2  APM22       0.1622
     12 ****        3.9869   -9.9570   11.0161 H       2  APM22       0.3830
     13 ****       -1.5871   -9.3774    7.0476 H       2  APM22       0.5684
     14 ****       -0.5399   -8.0778    6.4718 H       2  APM22       0.5550
     15 ****        0.8713  -10.8477    9.0977 H       2  APM22       0.5516
     16 ****       -0.7747  -10.9689    8.4701 H       2  APM22       0.5770
     17 ****        7.5571   -6.2292    8.4365 H       3  PIP33       0.1071
     18 ****        7.8223   -7.8190    9.1453 H       3  PIP33       0.0557
     19 ****        9.6731   -6.3098    9.7842 H       3  PIP33       0.0445
     20 ****        8.7341   -6.7895   11.2278 H       3  PIP33       0.0144
     21 ****        8.4407   -4.1350    9.6734 H       3  PIP33       0.0774
     22 ****        9.2077   -4.3277   11.2726 H       3  PIP33       0.0525
     23 ****        6.8294   -3.4907   11.4751 H       3  PIP33       0.0273
     24 ****        7.0359   -5.0835   12.2562 H       3  PIP33       0.0246
     25 ****        4.9542   -5.0488   10.8964 H       3  PIP33       0.0898
     26 ****        5.8694   -4.6012    9.4463 H       3  PIP33       0.0829
     27 S           5.7111  -10.4153   12.6343 S.O2    1  TOS11       2.2909
     28 O1          7.0086  -10.9820   12.3173 O.2     1  TOS11      -0.9396
     29 O2          4.7464  -11.2109   13.3675 O.2     1  TOS11      -0.9803
     30 C5          7.3697   -7.0655   14.2223 C.ar    4  NAPHTHALENE4   -0.2766
     31 C6          7.2038   -8.2818   13.5563 C.ar    4  NAPHTHALENE4   -0.0992
     32 C7          5.9398   -8.8724   13.4822 C.ar    4  NAPHTHALENE4   -0.4667
     33 C8          4.8397   -8.2285   14.0546 C.ar    4  NAPHTHALENE4   -0.1835
     34 C9          4.9995   -7.0087   14.7221 C.ar    4  NAPHTHALENE4    0.1316
     35 C10         6.2704   -6.4248   14.8071 C.ar    4  NAPHTHALENE4    0.2499
     36 H1          2.9094   -6.8082   15.2491 H       4  NAPHTHALENE4    0.1883
     37 C           5.4908   -7.5645   10.5028 C.2     2  APM22       0.6614
     38 CA          5.7278   -9.0312   10.2103 C.3     2  APM22       0.2823
     39 CB          5.3467   -9.3941    8.7441 C.3     2  APM22      -0.4321
     40 CG          4.0728   -8.6826    8.2478 C.ar    2  APM22       0.1531
     41 CD1         2.8324   -9.3330    8.2239 C.ar    2  APM22      -0.1095
     42 CD2         4.1539   -7.3641    7.7864 C.ar    2  APM22      -0.0459
     43 CE1         1.6630   -8.6729    7.8146 C.ar    2  APM22      -0.3814
     44 CE2         3.0045   -6.6947    7.3634 C.ar    2  APM22      -0.1681
     45 CZ          1.7627   -7.3311    7.4224 C.ar    2  APM22      -0.0589
     46 CF          0.3176   -9.3833    7.7885 C.3     2  APM22       1.1153
     47 O           4.4772   -7.3396   11.1459 O.2     2  APM22      -0.6226
     48 N           4.9676   -9.8285   11.1667 N.3     2  APM22      -0.9848
     49 NG1        -0.6660   -8.9129    7.0594 N.3     2  APM22      -1.0458
     50 NG2         0.1286  -10.4716    8.4940 N.3     2  APM22      -1.0102
     51 N1          6.3063   -6.5477   10.0932 N.am    3  PIP33      -0.5472
     52 C2          7.5724   -6.7808    9.3898 C.3     3  PIP33       0.0045
     53 C3          8.6974   -6.2116   10.2894 C.3     3  PIP33       0.0202
     54 C4          8.4196   -4.7192   10.6084 C.3     3  PIP33      -0.1674
     55 C5          7.0347   -4.5580   11.2881 C.3     3  PIP33       0.0525
     56 C6          5.9271   -5.1638   10.3921 C.3     3  PIP33       0.0055
     57 H2          3.2116   -4.6571   16.4264 H       4  NAPHTHALENE4    0.1708
     58 H3          5.4645   -3.6243   16.5757 H       4  NAPHTHALENE4    0.1647
     59 H4          7.4126   -4.7430   15.5475 H       4  NAPHTHALENE4    0.2022
     60 H5          8.3603   -6.6244   14.2796 H       4  NAPHTHALENE4    0.2084
     61 H6          8.0601   -8.7652   13.0991 H       4  NAPHTHALENE4    0.1882
     62 H8          3.8599   -8.6878   13.9741 H       4  NAPHTHALENE4    0.2263
@<TRIPOS>BOND
     1    27    32    1
     2    30    31   ar
     3    30    35   ar
     4    30    60    1
     5    35     4   ar
     6    35    34   ar
     7    34     1   ar
     8    38     5    1
     9    39     6    1
    10    39     7    1
    11    41     8    1
    12    42     9    1
    13    44    10    1
    14    45    11    1
    15    48    12    1
    16    49    13    1
    17    49    14    1
    18    50    15    1
    19    50    16    1
    20    52    17    1
    21    52    18    1
    22    53    19    1
    23    53    20    1
    24    54    21    1
    25    54    22    1
    26    55    23    1
    27    55    24    1
    28    56    25    1
    29    56    26    1
    30    34    33   ar
    31    27    29    2
    32    27    28    2
    33    33    32   ar
    34    33    62    1
    35    32    31   ar
    36    31    61    1
    37     1     2   ar
    38     1    36    1
    39    37    47    2
    40    38    37    1
    41    38    48    1
    42    39    38    1
    43    40    39    1
    44    40    42   ar
    45    41    40   ar
    46    43    41   ar
    47    46    43    1
    48    43    45   ar
    49    45    44   ar
    50    44    42   ar
    51    46    50    1
    52    46    49    1
    53    51    56    1
    54    52    51    1
    55    53    52    1
    56    54    53    1
    57    54    55    1
    58    55    56    1
    59    37    51   am
    60    48    27    1
    61     2     3   ar
    62     2    57    1
    63     3     4   ar
    64     3    58    1
    65     4    59    1
