@<TRIPOS>MOLECULE
37x
 78 82 0 0 0
SMALL
USER_CHARGES

@<TRIPOS>ATOM
      1 C1          3.9013   -6.3654   15.2979 C.ar    4  NAPHTHALENE4   -0.2769
      2 C2          4.0675   -5.1505   15.9666 C.ar    4  NAPHTHALENE4   -0.0972
      3 C3          5.3334   -4.5686   16.0500 C.ar    4  NAPHTHALENE4   -0.1095
      4 C4          6.4248   -5.2096   15.4597 C.ar    4  NAPHTHALENE4   -0.2023
      5 ****        6.7768   -9.3030   10.3912 H       2  APM22       0.1516
      6 ****        5.2470  -10.4954    8.6581 H       2  APM22       0.1888
      7 ****        6.1638   -9.1194    8.0388 H       2  APM22       0.1410
      8 ****        2.7987  -10.3899    8.5107 H       2  APM22       0.2084
      9 ****        5.1108   -6.8622    7.7379 H       2  APM22       0.1730
     10 ****        3.0683   -5.6670    7.0450 H       2  APM22       0.1998
     11 ****        0.8717   -6.7602    7.2112 H       2  APM22       0.1674
     12 ****        3.9729   -9.9344   10.9849 H       2  APM22       0.3823
     13 ****       -1.5776   -9.3653    7.0629 H       2  APM22       0.5720
     14 ****       -0.5248   -8.0577    6.5095 H       2  APM22       0.5586
     15 ****        0.8993  -10.8663    9.0853 H       2  APM22       0.5377
     16 ****       -0.7552  -10.9844    8.4731 H       2  APM22       0.5726
     17 ****        7.5548   -6.1973    8.4253 H       3  PIP33       0.1050
     18 ****        7.8092   -7.8007    9.1136 H       3  PIP33       0.0832
     19 ****        9.6670   -6.3020    9.7762 H       3  PIP33       0.0814
     20 ****        8.7155   -6.8109   11.2027 H       3  PIP33       0.0238
     21 ****        8.4699   -4.1181    9.7188 H       3  PIP33       0.1635
     22 C           9.4898   -4.2513   11.6092 C.2     5  CO25        0.8517
     23 ****        6.8222   -3.4878   11.4737 H       3  PIP33       0.0319
     24 ****        6.9954   -5.0894   12.2467 H       3  PIP33      -0.0036
     25 ****        4.9467   -5.0433   10.8758 H       3  PIP33       0.1078
     26 ****        5.8737   -4.5878    9.4346 H       3  PIP33       0.0772
     27 S           5.6847  -10.4166   12.6250 S.O2    1  TOS11       2.2568
     28 O1          6.9727  -11.0074   12.3153 O.2     1  TOS11      -0.9276
     29 O2          4.6999  -11.1930   13.3528 O.2     1  TOS11      -0.9544
     30 C5          7.3686   -7.0725   14.2102 C.ar    4  NAPHTHALENE4   -0.2309
     31 C6          7.1980   -8.2844   13.5379 C.ar    4  NAPHTHALENE4   -0.0992
     32 C7          5.9328   -8.8732   13.4677 C.ar    4  NAPHTHALENE4   -0.4752
     33 C8          4.8361   -8.2253   14.0425 C.ar    4  NAPHTHALENE4   -0.1766
     34 C9          4.9990   -7.0081   14.7106 C.ar    4  NAPHTHALENE4    0.1905
     35 C10         6.2703   -6.4280   14.7941 C.ar    4  NAPHTHALENE4    0.1400
     36 H1          2.9111   -6.8058   15.2397 H       4  NAPHTHALENE4    0.1939
     37 C           5.4912   -7.5590   10.4857 C.2     2  APM22       0.5544
     38 CA          5.7309   -9.0267   10.1942 C.3     2  APM22       0.2336
     39 CB          5.3558   -9.4017    8.7297 C.3     2  APM22      -0.4933
     40 CG          4.0783   -8.6928    8.2432 C.ar    2  APM22       0.2074
     41 CD1         2.8394   -9.3456    8.2247 C.ar    2  APM22      -0.1591
     42 CD2         4.1552   -7.3711    7.7904 C.ar    2  APM22      -0.0443
     43 CE1         1.6699   -8.6785    7.8301 C.ar    2  APM22      -0.3490
     44 CE2         3.0007   -6.6924    7.3962 C.ar    2  APM22      -0.1666
     45 CZ          1.7607   -7.3317    7.4553 C.ar    2  APM22      -0.0749
     46 CF          0.3268   -9.3889    7.8014 C.3     2  APM22       1.1101
     47 O           4.4776   -7.3370   11.1298 O.2     2  APM22      -0.6144
     48 N           4.9545   -9.8181   11.1419 N.3     2  APM22      -0.9400
     49 NG1        -0.6557   -8.9034    7.0820 N.3     2  APM22      -1.0518
     50 NG2         0.1474  -10.4860    8.4943 N.3     2  APM22      -0.9955
     51 N1          6.3021   -6.5379   10.0757 N.am    3  PIP33      -0.3548
     52 C2          7.5668   -6.7633    9.3701 C.3     3  PIP33      -0.0570
     53 C3          8.6901   -6.2091   10.2807 C.3     3  PIP33       0.0259
     54 C4          8.4266   -4.7239   10.6439 C.3     3  PIP33      -0.4502
     55 C5          7.0237   -4.5554   11.2850 C.3     3  PIP33       0.1777
     56 C6          5.9230   -5.1553   10.3774 C.3     3  PIP33      -0.0766
     57 O          10.3427   -3.4573   11.2434 O.2     5  CO25       -0.6148
     58 O           9.4381   -4.7519   12.8597 O.3     5  CO25       -0.3620
     59 ****       10.4858   -4.2561   13.7224 C.3     5  CO25       -0.1468
     60 H2          3.2144   -4.6577   16.4216 H       4  NAPHTHALENE4    0.1617
     61 H3          5.4685   -3.6247   16.5686 H       4  NAPHTHALENE4    0.1701
     62 H4          7.3927   -4.7483   15.5219 H       4  NAPHTHALENE4    0.1529
     63 H5          8.3601   -6.6384   14.2748 H       4  NAPHTHALENE4    0.1958
     64 H6          8.0510   -8.7669   13.0733 H       4  NAPHTHALENE4    0.1868
     65 H8          3.8552   -8.6810   13.9629 H       4  NAPHTHALENE4    0.2161
     66 ****       10.4056   -3.1604   13.8206 H       5  CO25        0.1471
     67 ****       11.4689   -4.4875   13.2835 H       5  CO25        0.1401
     68 ****       11.6529   -6.5962   14.6207 H       6  PHENYL6     0.1724
     69 C          10.4308   -4.8879   15.1242 C.ar    6  PHENYL6     0.0584
     70 C          11.1074   -6.0814   15.4044 C.ar    6  PHENYL6    -0.1744
     71 C          11.0959   -6.6203   16.6954 C.ar    6  PHENYL6    -0.1670
     72 C          10.3836   -5.9844   17.7154 C.ar    6  PHENYL6    -0.1029
     73 C           9.6875   -4.8049   17.4406 C.ar    6  PHENYL6    -0.1763
     74 C           9.7145   -4.2636   16.1518 C.ar    6  PHENYL6    -0.1574
     75 ****       11.6437   -7.5329   16.9099 H       6  PHENYL6     0.1573
     76 ****       10.3733   -6.4025   18.7175 H       6  PHENYL6     0.1502
     77 ****        9.1297   -4.3093   18.2298 H       6  PHENYL6     0.1635
     78 ****        9.1659   -3.3494   15.9482 H       6  PHENYL6     0.1633
@<TRIPOS>BOND
     1    27    32    1
     2    30    31   ar
     3    30    35   ar
     4    30    63    1
     5    35     4   ar
     6    35    34   ar
     7    34     1   ar
     8    38     5    1
     9    39     6    1
    10    39     7    1
    11    41     8    1
    12    42     9    1
    13    44    10    1
    14    45    11    1
    15    48    12    1
    16    49    13    1
    17    49    14    1
    18    50    15    1
    19    50    16    1
    20    52    17    1
    21    52    18    1
    22    53    19    1
    23    53    20    1
    24    54    21    1
    25    22    57    2
    26    55    23    1
    27    55    24    1
    28    56    25    1
    29    56    26    1
    30    34    33   ar
    31    27    29    2
    32    27    28    2
    33    33    32   ar
    34    33    65    1
    35    32    31   ar
    36    31    64    1
    37     1     2   ar
    38     1    36    1
    39    37    47    2
    40    38    37    1
    41    38    48    1
    42    39    38    1
    43    40    39    1
    44    40    42   ar
    45    41    40   ar
    46    43    41   ar
    47    46    43    1
    48    43    45   ar
    49    45    44   ar
    50    44    42   ar
    51    46    50    1
    52    46    49    1
    53    51    56    1
    54    52    51    1
    55    53    52    1
    56    54    53    1
    57    54    55    1
    58    55    56    1
    59    37    51   am
    60    48    27    1
    61    22    58    1
    62    54    22    1
    63    58    59    1
    64     2     3   ar
    65     2    60    1
    66     3     4   ar
    67     3    61    1
    68     4    62    1
    69    59    66    1
    70    59    67    1
    71    59    69    1
    72    69    70   ar
    73    69    74   ar
    74    74    73   ar
    75    73    72   ar
    76    72    71   ar
    77    71    70   ar
    78    70    68    1
    79    71    75    1
    80    72    76    1
    81    73    77    1
    82    74    78    1
