@<TRIPOS>MOLECULE
41x
 51 53 0 0 0
SMALL
USER_CHARGES

@<TRIPOS>ATOM
      1 C1          3.8943   -6.3666   15.2842 C.ar    4  NAPHTHALENE4   -0.2277
      2 C2          4.0710   -5.1520   15.9520 C.ar    4  NAPHTHALENE4   -0.1422
      3 C3          5.3429   -4.5812   16.0361 C.ar    4  NAPHTHALENE4   -0.0326
      4 C4          6.4381   -5.2299   15.4587 C.ar    4  NAPHTHALENE4   -0.3210
      5 ****        6.7442   -9.1646   10.3878 H       2  APM22       0.1305
      6 ****        5.3176  -10.4802    8.6348 H       2  APM22       0.1601
      7 ****        6.2239   -9.0597    8.0881 H       2  APM22       0.1307
      8 ****        2.8261  -10.4132    8.5011 H       2  APM22       0.1983
      9 ****        5.1300   -6.8949    7.6233 H       2  APM22       0.2194
     10 ****        3.0618   -5.6803    7.0469 H       2  APM22       0.1908
     11 ****        0.8666   -6.7824    7.2732 H       2  APM22       0.1640
     12 ****        3.9667  -10.0381   10.9239 H       2  APM22       0.3418
     13 ****       -1.5610   -9.3547    7.1022 H       2  APM22       0.5672
     14 ****       -0.4971   -8.0475    6.5622 H       2  APM22       0.5554
     15 ****        0.9378  -10.8999    9.0794 H       2  APM22       0.5292
     16 ****       -0.7322  -11.0011    8.4993 H       2  APM22       0.5721
     17 ****        6.2769   -6.7683   10.8863 O.3     2  APM22      -0.4951
     18 C1          5.9036   -5.4415   11.3189 C.3     3  BENZYL3     0.1119
     19 ****        6.1231   -5.3258   12.3886 H       3  BENZYL3     0.0459
     20 ****        6.5734   -4.7715   10.7638 H       3  BENZYL3     0.1069
     21 ****        4.8685   -5.1096   11.1374 H       3  BENZYL3     0.0496
     22 S           5.6621  -10.4383   12.6252 S.O2    1  TOS11       2.2110
     23 O1          6.9488  -11.0315   12.3173 O.2     1  TOS11      -0.9035
     24 O2          4.6722  -11.2073   13.3536 O.2     1  TOS11      -0.9518
     25 C5          7.3591   -7.1021   14.2104 C.ar    4  NAPHTHALENE4   -0.2942
     26 C6          7.1804   -8.3140   13.5379 C.ar    4  NAPHTHALENE4   -0.1237
     27 C7          5.9109   -8.8915   13.4623 C.ar    4  NAPHTHALENE4   -0.4286
     28 C8          4.8156   -8.2315   14.0263 C.ar    4  NAPHTHALENE4   -0.1756
     29 C9          4.9886   -7.0184   14.7017 C.ar    4  NAPHTHALENE4    0.1191
     30 C10         6.2661   -6.4498   14.7939 C.ar    4  NAPHTHALENE4    0.2524
     31 H1          2.8996   -6.7975   15.2227 H       4  NAPHTHALENE4    0.1877
     32 C           5.2657   -7.5965   10.5851 C.2     2  APM22       0.8048
     33 CA          5.6677   -9.0029   10.2062 C.3     2  APM22       0.1092
     34 CB          5.3830   -9.3831    8.7231 C.3     2  APM22      -0.3368
     35 CG          4.1015   -8.7087    8.2065 C.ar    2  APM22       0.1482
     36 CD1         2.8677   -9.3695    8.2107 C.ar    2  APM22      -0.1389
     37 CD2         4.1720   -7.3951    7.7251 C.ar    2  APM22      -0.1052
     38 CE1         1.6918   -8.7010    7.8391 C.ar    2  APM22      -0.3450
     39 CE2         3.0060   -6.7113    7.3822 C.ar    2  APM22      -0.1457
     40 CZ          1.7675   -7.3514    7.4773 C.ar    2  APM22      -0.0669
     41 CF          0.3486   -9.4083    7.8226 C.3     2  APM22       1.0913
     42 O           4.0858   -7.2804   10.6133 O.2     2  APM22      -0.6196
     43 N           4.9306   -9.8590   11.1180 N.3     2  APM22      -0.8628
     44 NG1        -0.6346   -8.9023    7.1204 N.3     2  APM22      -1.0330
     45 NG2         0.1753  -10.5108    8.5070 N.3     2  APM22      -0.9856
     46 H2          3.2203   -4.6519   16.4050 H       4  NAPHTHALENE4    0.1692
     47 H3          5.4806   -3.6343   16.5490 H       4  NAPHTHALENE4    0.1585
     48 H4          7.4211   -4.7745   15.5304 H       4  NAPHTHALENE4    0.1963
     49 H5          8.3540   -6.6718   14.2713 H       4  NAPHTHALENE4    0.2134
     50 H6          8.0307   -8.8035   13.0754 H       4  NAPHTHALENE4    0.2049
     51 H8          3.8294   -8.6739   13.9322 H       4  NAPHTHALENE4    0.2178
@<TRIPOS>BOND
     1    22    27    1
     2    25    26   ar
     3    25    30   ar
     4    25    49    1
     5    30     4   ar
     6    30    29   ar
     7    29     1   ar
     8    33     5    1
     9    34     6    1
    10    34     7    1
    11    36     8    1
    12    37     9    1
    13    39    10    1
    14    40    11    1
    15    43    12    1
    16    44    13    1
    17    44    14    1
    18    45    15    1
    19    45    16    1
    20    32    17    1
    21    18    19    1
    22    18    20    1
    23    17    18    1
    24    18    21    1
    25    29    28   ar
    26    22    24    2
    27    22    23    2
    28    28    27   ar
    29    28    51    1
    30    27    26   ar
    31    26    50    1
    32     1     2   ar
    33     1    31    1
    34    32    42    2
    35    33    32    1
    36    33    43    1
    37    34    33    1
    38    35    34    1
    39    35    37   ar
    40    36    35   ar
    41    38    36   ar
    42    41    38    1
    43    38    40   ar
    44    40    39   ar
    45    39    37   ar
    46    41    45    1
    47    41    44    1
    48    43    22    1
    49     2     3   ar
    50     2    46    1
    51     3     4   ar
    52     3    47    1
    53     4    48    1
