@<TRIPOS>MOLECULE
50x
 64 67 0 0 0
SMALL
USER_CHARGES

@<TRIPOS>ATOM
      1 C1          3.9012   -6.3666   15.3046 C.ar    4  NAPHTHALENE4   -0.2943
      2 C2          4.0671   -5.1504   15.9718 C.ar    4  NAPHTHALENE4   -0.1055
      3 C3          5.3342   -4.5683   16.0560 C.ar    4  NAPHTHALENE4   -0.1068
      4 C4          6.4334   -5.2044   15.4720 C.ar    4  NAPHTHALENE4   -0.2409
      5 ****        6.7747   -9.3074   10.3977 H       2  APM22       0.1679
      6 ****        5.2396  -10.4903    8.6646 H       2  APM22       0.1821
      7 ****        6.1583   -9.1126    8.0527 H       2  APM22       0.1815
      8 ****        2.7961  -10.3790    8.5161 H       2  APM22       0.2037
      9 ****        5.1084   -6.8545    7.7454 H       2  APM22       0.1887
     10 ****        3.0750   -5.6751    7.0033 H       2  APM22       0.1937
     11 ****        0.8782   -6.7571    7.1756 H       2  APM22       0.1549
     12 ****        3.9814   -9.9519   11.0091 H       2  APM22       0.3485
     13 ****       -1.5844   -9.3736    7.0509 H       2  APM22       0.5575
     14 ****       -0.5354   -8.0722    6.4810 H       2  APM22       0.5477
     15 ****        0.8787  -10.8522    9.0944 H       2  APM22       0.5359
     16 ****       -0.7696  -10.9725    8.4709 H       2  APM22       0.5640
     17 ****        7.5479   -6.2257    8.4216 H       3  PIP33       0.1202
     18 ****        7.8132   -7.8170    9.1314 H       3  PIP33       0.0441
     19 ****        9.6640   -6.3085    9.7721 H       3  PIP33       0.0416
     20 ****        8.7166   -6.8093   11.2038 H       3  PIP33       0.0100
     21 ****        8.4479   -4.1331    9.6886 H       3  PIP33       0.0532
     22 C           9.4770   -4.2382   11.5776 C.2     5  CO25        0.7513
     23 ****        6.8205   -3.4915   11.4638 H       3  PIP33       0.0581
     24 ****        7.0030   -5.0891   12.2428 H       3  PIP33       0.0323
     25 ****        4.9458   -5.0507   10.8856 H       3  PIP33       0.0884
     26 ****        5.8584   -4.6004    9.4333 H       3  PIP33       0.1073
     27 S           5.7044  -10.4170   12.6326 S.O2    1  TOS11       2.2685
     28 O1          6.9986  -10.9909   12.3155 O.2     1  TOS11      -0.9572
     29 O2          4.7333  -11.2073   13.3633 O.2     1  TOS11      -1.0098
     30 C5          7.3695   -7.0677   14.2210 C.ar    4  NAPHTHALENE4   -0.2577
     31 C6          7.2031   -8.2822   13.5515 C.ar    4  NAPHTHALENE4   -0.0941
     32 C7          5.9391   -8.8730   13.4784 C.ar    4  NAPHTHALENE4   -0.4876
     33 C8          4.8401   -8.2275   14.0514 C.ar    4  NAPHTHALENE4   -0.1765
     34 C9          5.0003   -7.0081   14.7191 C.ar    4  NAPHTHALENE4    0.1257
     35 C10         6.2712   -6.4241   14.8047 C.ar    4  NAPHTHALENE4    0.2412
     36 H1          2.9107   -6.8076   15.2467 H       4  NAPHTHALENE4    0.1741
     37 C           5.4881   -7.5652   10.4972 C.2     2  APM22       0.7842
     38 CA          5.7277   -9.0317   10.2063 C.3     2  APM22       0.2095
     39 CB          5.3484   -9.3971    8.7405 C.3     2  APM22      -0.5420
     40 CG          4.0739   -8.6857    8.2468 C.ar    2  APM22       0.2107
     41 CD1         2.8338   -9.3367    8.2241 C.ar    2  APM22      -0.1258
     42 CD2         4.1538   -7.3665    7.7876 C.ar    2  APM22      -0.0553
     43 CE1         1.6650   -8.6744    7.8184 C.ar    2  APM22      -0.3691
     44 CE2         3.0035   -6.6943    7.3716 C.ar    2  APM22      -0.1746
     45 CZ          1.7620   -7.3314    7.4306 C.ar    2  APM22      -0.0767
     46 CF          0.3199   -9.3846    7.7916 C.3     2  APM22       1.0903
     47 O           4.4768   -7.3420   11.1447 O.2     2  APM22      -0.6844
     48 N           4.9626   -9.8268   11.1600 N.3     2  APM22      -0.8960
     49 NG1        -0.6630   -8.9099    7.0648 N.3     2  APM22      -1.0443
     50 NG2         0.1336  -10.4750    8.4940 N.3     2  APM22      -0.9739
     51 N1          6.2985   -6.5472   10.0811 N.am    3  PIP33      -0.5950
     52 C2          7.5627   -6.7784    9.3741 C.3     3  PIP33      -0.0772
     53 C3          8.6871   -6.2148   10.2762 C.3     3  PIP33       0.0668
     54 C4          8.4171   -4.7260   10.6200 C.3     3  PIP33      -0.1916
     55 C5          7.0217   -4.5598   11.2775 C.3     3  PIP33       0.0309
     56 C6          5.9173   -5.1638   10.3782 C.3     3  PIP33      -0.0809
     57 O           9.5719   -4.8139   12.6953 O.co2   5  CO25       -0.9806
     58 O          10.2209   -3.2826   11.2284 O.co2   5  CO25       -0.9453
     59 H2          3.2124   -4.6573   16.4252 H       4  NAPHTHALENE4    0.1450
     60 H3          5.4645   -3.6235   16.5746 H       4  NAPHTHALENE4    0.1633
     61 H4          7.4125   -4.7404   15.5435 H       4  NAPHTHALENE4    0.2383
     62 H5          8.3604   -6.6296   14.2837 H       4  NAPHTHALENE4    0.2894
     63 H6          8.0586   -8.7647   13.0914 H       4  NAPHTHALENE4    0.1701
     64 H8          3.8604   -8.6866   13.9707 H       4  NAPHTHALENE4    0.2023
@<TRIPOS>BOND
     1    27    32    1
     2    30    31   ar
     3    30    35   ar
     4    30    62    1
     5    35     4   ar
     6    35    34   ar
     7    34     1   ar
     8    38     5    1
     9    39     6    1
    10    39     7    1
    11    41     8    1
    12    42     9    1
    13    44    10    1
    14    45    11    1
    15    48    12    1
    16    49    13    1
    17    49    14    1
    18    50    15    1
    19    50    16    1
    20    52    17    1
    21    52    18    1
    22    53    19    1
    23    53    20    1
    24    54    21    1
    25    22    57   ar
    26    55    23    1
    27    55    24    1
    28    56    25    1
    29    56    26    1
    30    34    33   ar
    31    27    29    2
    32    27    28    2
    33    33    32   ar
    34    33    64    1
    35    32    31   ar
    36    31    63    1
    37     1     2   ar
    38     1    36    1
    39    37    47    2
    40    38    37    1
    41    38    48    1
    42    39    38    1
    43    40    39    1
    44    40    42   ar
    45    41    40   ar
    46    43    41   ar
    47    46    43    1
    48    43    45   ar
    49    45    44   ar
    50    44    42   ar
    51    46    50    1
    52    46    49    1
    53    51    56    1
    54    52    51    1
    55    53    52    1
    56    54    53    1
    57    54    55    1
    58    55    56    1
    59    37    51   am
    60    48    27    1
    61    22    58   ar
    62    54    22    1
    63     2     3   ar
    64     2    59    1
    65     3     4   ar
    66     3    60    1
    67     4    61    1
