@<TRIPOS>MOLECULE
52x
 65 68 0 0 0
SMALL
USER_CHARGES

@<TRIPOS>ATOM
      1 C1          3.8911   -6.3550   15.3042 C.ar    4  NAPHTHALENE4   -0.2540
      2 C2          4.0609   -5.1410   15.9734 C.ar    4  NAPHTHALENE4   -0.1219
      3 C3          5.3292   -4.5620   16.0547 C.ar    4  NAPHTHALENE4   -0.0648
      4 C4          6.4258   -5.2010   15.4665 C.ar    4  NAPHTHALENE4   -0.3019
      5 ****        6.6570   -9.4566   10.2559 H       2  APM22       0.0183
      6 ****        5.0603  -10.5699    8.6191 H       2  APM22       0.2170
      7 ****        6.0413   -9.2600    7.9810 H       2  APM22       0.2064
      8 ****        2.6947  -10.3961    8.4546 H       2  APM22       0.2195
      9 ****        5.0786   -6.9057    7.7267 H       2  APM22       0.2227
     10 ****        3.0574   -5.6632    7.0338 H       2  APM22       0.1916
     11 ****        0.8355   -6.7219    7.1872 H       2  APM22       0.1660
     12 ****        3.8607   -9.9389   11.0302 H       2  APM22       0.3986
     13 ****       -1.6367   -9.3593    7.0522 H       2  APM22       0.5709
     14 ****       -0.5876   -8.0424    6.5083 H       2  APM22       0.5558
     15 ****        0.8614  -10.8564    9.0661 H       2  APM22       0.5456
     16 ****       -0.7903  -10.9934    8.4539 H       2  APM22       0.5722
     17 C           8.6775   -7.4747   10.2838 C.2     5  CO25        1.0076
     18 N1          6.3873   -6.6592   10.0922 N.am    3  PYRROLIDINE3   -0.3411
     19 C1          6.0880   -5.2673   10.4125 C.3     3  PYRROLIDINE3   -0.1134
     20 C2          7.4182   -4.5774   10.0385 C.3     3  PYRROLIDINE3    0.0043
     21 C3          7.9239   -5.4692    8.8818 C.3     3  PYRROLIDINE3   -0.3364
     22 C4          7.6228   -6.9215    9.3556 C.3     3  PYRROLIDINE3    0.0162
     23 O           8.5927   -7.2067   11.4696 O.2     5  CO25       -0.6355
     24 H2          5.8299   -5.1039   11.4703 H       3  PYRROLIDINE3    0.1076
     25 H3          5.2706   -4.9048    9.7665 H       3  PYRROLIDINE3    0.1175
     26 H4          8.1259   -4.6373   10.8814 H       3  PYRROLIDINE3    0.0707
     27 S           5.6432  -10.4058   12.6079 S.O2    1  TOS11       2.2524
     28 O1          6.9235  -10.9770   12.2369 O.2     1  TOS11      -0.9210
     29 O2          4.7067  -11.2043   13.3741 O.2     1  TOS11      -0.9467
     30 C5          7.3549   -7.0797   14.2236 C.ar    4  NAPHTHALENE4   -0.3452
     31 C6          7.1865   -8.3222   13.6060 C.ar    4  NAPHTHALENE4   -0.0510
     32 C7          5.9111   -8.8783   13.4811 C.ar    4  NAPHTHALENE4   -0.4955
     33 C8          4.8171   -8.2128   14.0410 C.ar    4  NAPHTHALENE4   -0.1399
     34 C9          4.9871   -6.9988   14.7141 C.ar    4  NAPHTHALENE4    0.1164
     35 C10         6.2609   -6.4212   14.8015 C.ar    4  NAPHTHALENE4    0.2759
     36 H1          2.8999   -6.7941   15.2477 H       4  NAPHTHALENE4    0.1875
     37 C           5.5021   -7.6273   10.4605 C.2     2  APM22       0.4195
     38 CA          5.6238   -9.1067   10.1422 C.3     2  APM22       0.6493
     39 CB          5.2294   -9.4835    8.6859 C.3     2  APM22      -0.7431
     40 CG          3.9969   -8.7150    8.2057 C.ar    2  APM22       0.3582
     41 CD1         2.7508   -9.3482    8.1848 C.ar    2  APM22      -0.2083
     42 CD2         4.1091   -7.3913    7.7690 C.ar    2  APM22      -0.1723
     43 CE1         1.6000   -8.6535    7.8040 C.ar    2  APM22      -0.3550
     44 CE2         2.9680   -6.6891    7.3790 C.ar    2  APM22      -0.1257
     45 CZ          1.7141   -7.3075    7.4336 C.ar    2  APM22      -0.0789
     46 CF          0.2639   -9.3780    7.7892 C.3     2  APM22       1.1273
     47 O           4.5087   -7.3168   11.0993 O.2     2  APM22      -0.6119
     48 N           4.8516   -9.8382   11.1448 N.3     2  APM22      -1.0544
     49 NG1        -0.7181   -8.8923    7.0749 N.3     2  APM22      -1.0481
     50 NG2         0.1039  -10.4810    8.4778 N.3     2  APM22      -1.0075
     51 H5          7.2882   -3.5163    9.7636 H       3  PYRROLIDINE3    0.0764
     52 H6          8.9792   -5.2794    8.6320 H       3  PYRROLIDINE3    0.1342
     53 H7          7.3083   -5.2281    7.9968 H       3  PYRROLIDINE3    0.1476
     54 H8          7.4825   -7.5736    8.4880 H       3  PYRROLIDINE3    0.0638
     55 C1         10.6083   -8.7402   10.7459 C.3     6  BENZYL6     0.0180
     56 O           9.6599   -8.2388    9.7635 O.3     5  CO25       -0.5477
     57 ****       10.5820   -9.8385   10.7553 H       6  BENZYL6     0.1245
     58 H2          3.2079   -4.6474   16.4301 H       4  NAPHTHALENE4    0.1612
     59 H3          5.4621   -3.6180   16.5744 H       4  NAPHTHALENE4    0.1600
     60 H4          7.4050   -4.7369   15.5363 H       4  NAPHTHALENE4    0.1946
     61 H5          8.3435   -6.6312   14.2544 H       4  NAPHTHALENE4    0.2387
     62 H6          8.0496   -8.8585   13.2267 H       4  NAPHTHALENE4    0.1800
     63 H8          3.8324   -8.6575   13.9475 H       4  NAPHTHALENE4    0.2054
     64 ****       11.6275   -8.4168   10.4878 H       6  BENZYL6     0.0771
     65 ****       10.4421   -8.4274   11.7845 H       6  BENZYL6     0.0668
@<TRIPOS>BOND
     1    27    32    1
     2    30    31   ar
     3    30    35   ar
     4    30    61    1
     5    35     4   ar
     6    35    34   ar
     7    34     1   ar
     8    38     5    1
     9    39     6    1
    10    39     7    1
    11    41     8    1
    12    42     9    1
    13    44    10    1
    14    45    11    1
    15    48    12    1
    16    49    13    1
    17    49    14    1
    18    50    15    1
    19    50    16    1
    20    37    18   am
    21    18    19    1
    22    18    22    1
    23    17    23    2
    24    22    21    1
    25    22    54    1
    26    22    17    1
    27    21    20    1
    28    21    52    1
    29    21    53    1
    30    34    33   ar
    31    27    29    2
    32    27    28    2
    33    33    32   ar
    34    33    63    1
    35    32    31   ar
    36    31    62    1
    37     1     2   ar
    38     1    36    1
    39    37    47    2
    40    38    37    1
    41    38    48    1
    42    39    38    1
    43    40    39    1
    44    40    42   ar
    45    41    40   ar
    46    43    41   ar
    47    46    43    1
    48    43    45   ar
    49    45    44   ar
    50    44    42   ar
    51    46    50    1
    52    46    49    1
    53    20    19    1
    54    20    26    1
    55    20    51    1
    56    19    24    1
    57    19    25    1
    58    17    56    1
    59    55    57    1
    60    48    27    1
    61     2     3   ar
    62     2    58    1
    63     3     4   ar
    64     3    59    1
    65     4    60    1
    66    56    55    1
    67    55    64    1
    68    55    65    1
