@<TRIPOS>MOLECULE
55x
 64 67 0 0 0
SMALL
USER_CHARGES

@<TRIPOS>ATOM
      1 C1          3.9019   -6.3669   15.2998 C.ar    4  NAPHTHALENE4   -0.2416
      2 C2          4.0678   -5.1508   15.9685 C.ar    4  NAPHTHALENE4   -0.1552
      3 C3          5.3354   -4.5698   16.0522 C.ar    4  NAPHTHALENE4   -0.0663
      4 C4          6.4339   -5.2050   15.4674 C.ar    4  NAPHTHALENE4   -0.3217
      5 ****        6.7690   -9.3039   10.4003 H       2  APM22       0.1238
      6 ****        5.2456  -10.4923    8.6615 H       2  APM22       0.1659
      7 ****        6.1626   -9.1148    8.0469 H       2  APM22       0.1658
      8 ****        2.7986  -10.3867    8.5120 H       2  APM22       0.2028
      9 ****        5.1102   -6.8587    7.7430 H       2  APM22       0.1895
     10 ****        3.0706   -5.6690    7.0329 H       2  APM22       0.1901
     11 ****        0.8739   -6.7593    7.2009 H       2  APM22       0.1531
     12 ****        3.9714   -9.9425   10.9944 H       2  APM22       0.3620
     13 ****       -1.5790   -9.3675    7.0594 H       2  APM22       0.5641
     14 ****       -0.5271   -8.0619    6.5011 H       2  APM22       0.5540
     15 ****        0.8939  -10.8620    9.0880 H       2  APM22       0.5530
     16 ****       -0.7589  -10.9807    8.4726 H       2  APM22       0.5702
     17 ****        7.5411   -6.2113    8.4396 H       3  PIP33       0.1184
     18 ****        7.7986   -7.8074    9.1358 H       3  PIP33       0.0819
     19 ****        9.2011   -4.3386   11.2868 H       3  PIP33       0.0367
     20 ****        8.6702   -6.7864   11.2441 H       3  PIP33      -0.0435
     21 ****        8.4336   -4.1303    9.6892 H       3  PIP33       0.0861
     22 ****        6.8263   -3.4837   11.4797 H       3  PIP33       0.0066
     23 ****        7.0262   -5.0727   12.2666 H       3  PIP33       0.0193
     24 ****        4.9449   -5.0460   10.9114 H       3  PIP33       0.0518
     25 ****        5.8563   -4.5927    9.4604 H       3  PIP33       0.0812
     26 S           5.6887  -10.4174   12.6270 S.O2    1  TOS11       2.2525
     27 O1          6.9784  -11.0032   12.3138 O.2     1  TOS11      -0.9367
     28 O2          4.7092  -11.1982   13.3568 O.2     1  TOS11      -1.0042
     29 C5          7.3678   -7.0671   14.2093 C.ar    4  NAPHTHALENE4   -0.2756
     30 C6          7.1993   -8.2834   13.5412 C.ar    4  NAPHTHALENE4   -0.1013
     31 C7          5.9344   -8.8732   13.4709 C.ar    4  NAPHTHALENE4   -0.4300
     32 C8          4.8380   -8.2264   14.0452 C.ar    4  NAPHTHALENE4   -0.2063
     33 C9          5.0002   -7.0068   14.7139 C.ar    4  NAPHTHALENE4    0.1336
     34 C10         6.2720   -6.4247   14.7972 C.ar    4  NAPHTHALENE4    0.2593
     35 H1          2.9112   -6.8074   15.2422 H       4  NAPHTHALENE4    0.1784
     36 C           5.4794   -7.5616   10.4984 C.2     2  APM22       0.7193
     37 CA          5.7235   -9.0275   10.2021 C.3     2  APM22       0.3099
     38 CB          5.3531   -9.3988    8.7355 C.3     2  APM22      -0.4468
     39 CG          4.0770   -8.6898    8.2454 C.ar    2  APM22       0.1844
     40 CD1         2.8382   -9.3428    8.2248 C.ar    2  APM22      -0.1323
     41 CD2         4.1550   -7.3689    7.7911 C.ar    2  APM22      -0.0469
     42 CE1         1.6689   -8.6771    7.8268 C.ar    2  APM22      -0.3879
     43 CE2         3.0018   -6.6924    7.3895 C.ar    2  APM22      -0.1650
     44 CZ          1.7615   -7.3315    7.4483 C.ar    2  APM22      -0.0906
     45 CF          0.3253   -9.3876    7.7986 C.3     2  APM22       1.1381
     46 O           4.4631   -7.3420   11.1393 O.2     2  APM22      -0.6945
     47 N           4.9527   -9.8231   11.1500 N.3     2  APM22      -0.9458
     48 NG1        -0.6572   -8.9051    7.0770 N.3     2  APM22      -1.0661
     49 NG2         0.1440  -10.4827    8.4943 N.3     2  APM22      -1.0172
     50 N1          6.2932   -6.5408   10.0951 N.am    3  PIP33      -0.6405
     51 C2          7.5578   -6.7698    9.3888 C.3     3  PIP33       0.0030
     52 C3          8.6850   -6.2189   10.2974 C.3     3  PIP33       0.1044
     53 C4          8.4124   -4.7232   10.6190 C.3     3  PIP33      -0.1650
     54 C5          7.0275   -4.5525   11.2962 C.3     3  PIP33       0.0076
     55 C6          5.9164   -5.1584   10.4038 C.3     3  PIP33       0.0385
     56 H2          3.2132   -4.6585   16.4224 H       4  NAPHTHALENE4    0.1580
     57 H3          5.4656   -3.6252   16.5718 H       4  NAPHTHALENE4    0.1526
     58 H4          7.4130   -4.7415   15.5394 H       4  NAPHTHALENE4    0.2070
     59 H5          8.3589   -6.6271   14.2657 H       4  NAPHTHALENE4    0.2312
     60 H6          8.0533   -8.7671   13.0798 H       4  NAPHTHALENE4    0.2145
     61 H8          3.8574   -8.6833   13.9656 H       4  NAPHTHALENE4    0.2190
     62 C          10.0283   -6.4011    9.6274 C.2     5  CO25        0.6705
     63 O          10.5609   -5.4011    9.0750 O.co2   5  CO25       -0.9179
     64 O          10.5727   -7.5394    9.6562 O.co2   5  CO25       -0.9589
@<TRIPOS>BOND
     1    26    31    1
     2    29    30   ar
     3    29    34   ar
     4    29    59    1
     5    34     4   ar
     6    34    33   ar
     7    33     1   ar
     8    37     5    1
     9    38     6    1
    10    38     7    1
    11    40     8    1
    12    41     9    1
    13    43    10    1
    14    44    11    1
    15    47    12    1
    16    48    13    1
    17    48    14    1
    18    49    15    1
    19    49    16    1
    20    51    17    1
    21    51    18    1
    22    52    62    1
    23    52    20    1
    24    53    21    1
    25    53    19    1
    26    54    22    1
    27    54    23    1
    28    55    24    1
    29    55    25    1
    30    33    32   ar
    31    26    28    2
    32    26    27    2
    33    32    31   ar
    34    32    61    1
    35    31    30   ar
    36    30    60    1
    37     1     2   ar
    38     1    35    1
    39    36    46    2
    40    37    36    1
    41    37    47    1
    42    38    37    1
    43    39    38    1
    44    39    41   ar
    45    40    39   ar
    46    42    40   ar
    47    45    42    1
    48    42    44   ar
    49    44    43   ar
    50    43    41   ar
    51    45    49    1
    52    45    48    1
    53    50    55    1
    54    51    50    1
    55    52    51    1
    56    53    52    1
    57    53    54    1
    58    54    55    1
    59    36    50   am
    60    47    26    1
    61     2     3   ar
    62     2    56    1
    63     3     4   ar
    64     3    57    1
    65     4    58    1
    66    62    63   ar
    67    62    64   ar
