@<TRIPOS>MOLECULE
68x
 59 60 0 0 0
SMALL
USER_CHARGES

@<TRIPOS>ATOM
      1 C1          3.6161   -8.4393   13.6670 C.3     1  TOS11      -0.2124
      2 ****        4.4818   -6.2073   14.6010 H       1  TOS11       0.2432
      3 C3          9.1349   -6.6193   14.4796 C.3     1  TOS11      -0.2212
      4 C4          8.7669   -9.3029   13.4918 C.3     1  TOS11      -0.2220
      5 ****        6.8636   -5.0498   15.0518 O.3     1  TOS11      -0.3247
      6 ****        5.7962   -4.1548   15.4041 C.3     1  TOS11      -0.0673
      7 ****        6.2496   -3.2226   15.7758 H       1  TOS11       0.1319
      8 ****        6.7441   -9.2096   10.3987 H       2  APM22       0.1313
      9 ****        5.2706  -10.4456    8.6339 H       2  APM22       0.1958
     10 ****        6.1753   -9.0313    8.0770 H       2  APM22       0.1297
     11 ****        2.8064  -10.3595    8.5208 H       2  APM22       0.2027
     12 ****        5.1038   -6.8284    7.7428 H       2  APM22       0.1874
     13 ****        3.0760   -5.6745    6.9482 H       2  APM22       0.2041
     14 ****        0.8839   -6.7557    7.1232 H       2  APM22       0.1596
     15 ****        4.0095  -10.0798   10.9475 H       2  APM22       0.4123
     16 ****       -1.5885   -9.3851    7.0408 H       2  APM22       0.5731
     17 ****       -0.5461   -8.0927    6.4463 H       2  APM22       0.5568
     18 ****        0.8652  -10.8351    9.1046 H       2  APM22       0.5562
     19 ****       -0.7778  -10.9590    8.4739 H       2  APM22       0.5774
     20 N20         6.3354   -6.6176   10.1483 N.am    2  APM22      -0.6968
     21 ****        7.1945   -6.8870    9.7006 H       2  APM22       0.4266
     22 C22         6.1068   -5.2010   10.3848 C.3     2  APM22      -0.0207
     23 ****        5.1493   -5.0177   10.8952 H       2  APM22       0.1169
     24 ****        6.0955   -4.6589    9.4265 H       2  APM22       0.0647
     25 ****        6.9129   -4.7963   11.0132 H       2  APM22       0.0920
     26 S           5.7670  -10.4418   12.5690 S.O2    1  TOS11       2.4358
     27 O1          6.9038  -11.1734   12.0588 O.2     1  TOS11      -0.9605
     28 O2          4.8204  -11.1660   13.3866 O.2     1  TOS11      -0.9773
     29 C1          6.1887   -8.8945   13.4007 C.ar    1  TOS11      -0.7967
     30 C2          5.1098   -8.0761   13.7835 C.ar    1  TOS11       0.2966
     31 C3          5.3394   -6.8120   14.3322 C.ar    1  TOS11      -0.4985
     32 C4          6.6309   -6.3346   14.5396 C.ar    1  TOS11       0.5246
     33 C5          7.7136   -7.1629   14.2250 C.ar    1  TOS11      -0.2670
     34 C6          7.4979   -8.4502   13.6975 C.ar    1  TOS11       0.2646
     35 ****        5.1726   -4.5783   16.2085 H       1  TOS11       0.0912
     36 C           5.4035   -7.5371   10.4903 C.2     2  APM22       0.6276
     37 CA          5.6804   -8.9992   10.2118 C.3     2  APM22       0.2766
     38 CB          5.3520   -9.3545    8.7307 C.3     2  APM22      -0.4907
     39 CG          4.0737   -8.6638    8.2334 C.ar    2  APM22       0.1894
     40 CD1         2.8345   -9.3193    8.2145 C.ar    2  APM22      -0.1299
     41 CD2         4.1535   -7.3469    7.7703 C.ar    2  APM22      -0.0283
     42 CE1         1.6656   -8.6700    7.7987 C.ar    2  APM22      -0.3963
     43 CE2         3.0022   -6.6889    7.3309 C.ar    2  APM22      -0.1974
     44 CZ          1.7640   -7.3284    7.3914 C.ar    2  APM22      -0.0390
     45 CF          0.3199   -9.3793    7.7787 C.3     2  APM22       1.1452
     46 O           4.3418   -7.2586   11.0278 O.2     2  APM22      -0.5998
     47 N           4.9548   -9.8322   11.1592 N.3     2  APM22      -1.0632
     48 NG1        -0.6682   -8.9196    7.0462 N.3     2  APM22      -1.0555
     49 NG2         0.1257  -10.4619    8.4958 N.3     2  APM22      -1.0317
     50 ****        5.1718   -3.9089   14.5293 H       1  TOS11       0.0757
     51 ****        3.3794   -9.3425   13.1024 H       1  TOS11       0.0475
     52 ****        3.0633   -7.6168   13.1846 H       1  TOS11       0.0767
     53 ****        3.2092   -8.5651   14.6838 H       1  TOS11       0.1319
     54 ****        9.1352   -5.6006   14.8889 H       1  TOS11       0.0828
     55 ****        9.6989   -6.5872   13.5379 H       1  TOS11       0.0810
     56 ****        9.6655   -7.2474   15.2101 H       1  TOS11       0.1215
     57 ****        8.6255  -10.3355   13.1776 H       1  TOS11       0.1307
     58 ****        9.3106   -9.3815   14.4470 H       1  TOS11       0.0885
     59 ****        9.4124   -8.8151   12.7436 H       1  TOS11       0.0692
@<TRIPOS>BOND
     1    30     1    1
     2    31     2    1
     3    33     3    1
     4    34     4    1
     5    32     5    1
     6     5     6    1
     7     6     7    1
     8    37     8    1
     9    38     9    1
    10    38    10    1
    11    40    11    1
    12    41    12    1
    13    43    13    1
    14    44    14    1
    15    47    15    1
    16    48    16    1
    17    48    17    1
    18    49    18    1
    19    49    19    1
    20    36    20   am
    21    20    21    1
    22    20    22    1
    23    22    23    1
    24    22    24    1
    25    22    25    1
    26    29    26    1
    27    26    28    2
    28    26    27    2
    29    29    34   ar
    30    30    29   ar
    31    31    30   ar
    32    32    31   ar
    33     6    35    1
    34    32    33   ar
    35    33    34   ar
    36    36    46    2
    37    37    36    1
    38    37    47    1
    39    38    37    1
    40    39    38    1
    41    39    41   ar
    42    40    39   ar
    43    42    40   ar
    44    45    42    1
    45    42    44   ar
    46    44    43   ar
    47    43    41   ar
    48    45    49    1
    49    45    48    1
    50    47    26    1
    51     6    50    1
    52     1    51    1
    53     1    52    1
    54     1    53    1
    55     3    54    1
    56     3    55    1
    57     3    56    1
    58     4    57    1
    59     4    58    1
    60     4    59    1
