@<TRIPOS>MOLECULE
69x
 47 48 0 0 0
SMALL
USER_CHARGES

@<TRIPOS>ATOM
      1 ****        5.2515   -9.8094   12.1117 H       1  APM21       0.5195
      2 ****        6.7901   -9.3549   10.3565 H       1  APM21       0.1595
      3 ****        5.2795  -10.4707    8.5209 H       1  APM21       0.1907
      4 ****        6.1751   -9.0471    8.0085 H       1  APM21       0.2196
      5 ****        2.8083  -10.3633    8.5170 H       1  APM21       0.1984
      6 ****        5.1001   -6.8323    7.7201 H       1  APM21       0.1845
      7 ****        3.0603   -5.6661    6.9820 H       1  APM21       0.2285
      8 ****        0.8725   -6.7553    7.1645 H       1  APM21       0.1937
      9 ****        3.8946   -9.7919   10.9991 H       1  APM21       0.5111
     10 ****       -1.5885   -9.3740    7.0531 H       1  APM21       0.6012
     11 ****       -0.5431   -8.0751    6.4756 H       1  APM21       0.5704
     12 ****        0.8781  -10.8515    9.0890 H       1  APM21       0.5650
     13 ****       -0.7708  -10.9700    8.4690 H       1  APM21       0.5950
     14 ****        7.5562   -6.2542    8.4080 H       2  PIP32       0.1402
     15 ****        7.8368   -7.8382    9.1235 H       2  PIP32       0.0826
     16 ****        9.6762   -6.3211    9.7348 H       2  PIP32       0.1356
     17 ****        8.7515   -6.8007   11.1896 H       2  PIP32       0.1015
     18 ****        8.4327   -4.1536    9.6327 H       2  PIP32       0.0575
     19 C25         9.5561   -4.1433   11.4825 C.3     2  PIP32      -0.5485
     20 ****        6.8275   -3.5182   11.4439 H       2  PIP32       0.1063
     21 ****        7.0464   -5.1122   12.2211 H       2  PIP32       0.0843
     22 ****        4.9562   -5.0817   10.8548 H       2  PIP32       0.0882
     23 ****        5.8874   -4.6337    9.4164 H       2  PIP32       0.0612
     24 C           5.5033   -7.6106   10.4697 C.2     1  APM21       0.5044
     25 CA          5.7429   -9.0723   10.1540 C.3     1  APM21       0.3218
     26 CB          5.3692   -9.3838    8.6740 C.3     1  APM21      -0.5932
     27 CG          4.0821   -8.6734    8.2153 C.ar    1  APM21       0.2274
     28 CD1         2.8421   -9.3242    8.2113 C.ar    1  APM21      -0.2412
     29 CD2         4.1492   -7.3508    7.7614 C.ar    1  APM21      -0.1046
     30 CE1         1.6675   -8.6700    7.8087 C.ar    1  APM21      -0.3334
     31 CE2         2.9960   -6.6852    7.3511 C.ar    1  APM21      -0.1109
     32 CZ          1.7579   -7.3258    7.4160 C.ar    1  APM21      -0.0475
     33 CF          0.3221   -9.3823    7.7871 C.3     1  APM21       1.1680
     34 O           4.4922   -7.3970   11.1178 O.2     1  APM21      -0.6055
     35 N           4.9617   -9.9345   11.0759 N.4     1  APM21      -0.7181
     36 NG1        -0.6663   -8.9103    7.0626 N.3     1  APM21      -1.0639
     37 NG2         0.1334  -10.4716    8.4901 N.3     1  APM21      -1.0556
     38 N1          6.3161   -6.5819   10.0687 N.am    2  PIP32      -0.3361
     39 C2          7.5820   -6.8019    9.3640 C.3     2  PIP32      -0.0907
     40 C3          8.7085   -6.2193   10.2543 C.3     2  PIP32      -0.2445
     41 C4          8.4321   -4.7256   10.5782 C.3     2  PIP32       0.2155
     42 C5          7.0406   -4.5830   11.2555 C.3     2  PIP32      -0.1666
     43 C6          5.9344   -5.1989   10.3619 C.3     2  PIP32       0.0714
     44 ****       10.5380   -4.2341   10.9870 H       2  PIP32       0.1524
     45 ****        9.5982   -4.6811   12.4442 H       2  PIP32       0.1472
     46 ****        9.3698   -3.0757   11.6862 H       2  PIP32       0.1556
     47 ****        5.1236  -10.9819   10.8962 H       1  APM21       0.5462
@<TRIPOS>BOND
     1    35     1    1
     2    25     2    1
     3    26     3    1
     4    26     4    1
     5    28     5    1
     6    29     6    1
     7    31     7    1
     8    32     8    1
     9    35     9    1
    10    36    10    1
    11    36    11    1
    12    37    12    1
    13    37    13    1
    14    39    14    1
    15    39    15    1
    16    40    16    1
    17    40    17    1
    18    41    18    1
    19    41    19    1
    20    42    20    1
    21    42    21    1
    22    43    22    1
    23    43    23    1
    24    24    34    2
    25    25    24    1
    26    25    35    1
    27    26    25    1
    28    27    26    1
    29    27    29   ar
    30    28    27   ar
    31    30    28   ar
    32    33    30    1
    33    30    32   ar
    34    32    31   ar
    35    31    29   ar
    36    33    37    1
    37    33    36    1
    38    38    43    1
    39    39    38    1
    40    40    39    1
    41    41    40    1
    42    41    42    1
    43    42    43    1
    44    24    38   am
    45    19    44    1
    46    19    45    1
    47    19    46    1
    48    35    47    1
