@<TRIPOS>MOLECULE
74x
 60 62 0 0 0
SMALL
USER_CHARGES

@<TRIPOS>ATOM
      1 C1          3.8988   -6.3688   15.2982 C.ar    4  NAPHTHALENE4   -0.2245
      2 C2          4.0658   -5.1533   15.9682 C.ar    4  NAPHTHALENE4   -0.1531
      3 C3          5.3338   -4.5728   16.0525 C.ar    4  NAPHTHALENE4   -0.0334
      4 C4          6.4317   -5.2084   15.4659 C.ar    4  NAPHTHALENE4   -0.3145
      5 ****        6.7736   -9.2043   10.3118 H       2  APM22       0.0948
      6 ****        5.1702  -10.5211    8.7064 H       2  APM22       0.1750
      7 ****        6.1284   -9.1894    8.0346 H       2  APM22       0.1314
      8 ****        2.7494  -10.4094    8.4893 H       2  APM22       0.1961
      9 ****        5.1040   -6.9040    7.7499 H       2  APM22       0.2201
     10 ****        3.0645   -5.6799    7.0573 H       2  APM22       0.1978
     11 ****        0.8560   -6.7579    7.2149 H       2  APM22       0.1588
     12 ****        3.9751   -9.9401   10.9915 H       2  APM22       0.3742
     13 ****       -1.6094   -9.3617    7.0610 H       2  APM22       0.5728
     14 ****       -0.5545   -8.0505    6.5173 H       2  APM22       0.5589
     15 ****        0.8729  -10.8715    9.0771 H       2  APM22       0.5517
     16 ****       -0.7825  -10.9916    8.4674 H       2  APM22       0.5760
     17 O17         6.3218   -6.6522   10.1153 O.3     3  AMINO3     -0.6273
     18 C           5.9756   -5.2961   10.4962 C.3     5  NBUTYL5     0.0730
     19 C           7.0596   -4.2730   10.0531 C.3     5  NBUTYL5     0.1348
     20 C           6.7451   -2.8209   10.5218 C.3     5  NBUTYL5    -0.0425
     21 C           7.8317   -1.8135   10.0572 C.3     5  NBUTYL5    -0.1764
     22 ****        5.0158   -5.0135   10.0314 H       5  NBUTYL5     0.0577
     23 ****        5.8653   -5.2377   11.5927 H       5  NBUTYL5     0.0482
     24 ****        7.1369   -4.2913    8.9529 H       5  NBUTYL5     0.0219
     25 ****        8.0277   -4.5857   10.4774 H       5  NBUTYL5     0.0297
     26 S           5.6927  -10.4123   12.6165 S.O2    1  TOS11       2.2676
     27 O1          6.9819  -10.9973   12.3025 O.2     1  TOS11      -0.9017
     28 O2          4.7093  -11.1936   13.3416 O.2     1  TOS11      -0.9421
     29 C5          7.3626   -7.0638   14.1977 C.ar    4  NAPHTHALENE4   -0.2937
     30 C6          7.1944   -8.2794   13.5299 C.ar    4  NAPHTHALENE4   -0.1014
     31 C7          5.9310   -8.8710   13.4629 C.ar    4  NAPHTHALENE4   -0.4801
     32 C8          4.8342   -8.2271   14.0404 C.ar    4  NAPHTHALENE4   -0.1680
     33 C9          4.9963   -7.0084   14.7092 C.ar    4  NAPHTHALENE4    0.1130
     34 C10         6.2678   -6.4245   14.7910 C.ar    4  NAPHTHALENE4    0.2530
     35 H1          2.9083   -6.8093   15.2419 H       4  NAPHTHALENE4    0.1864
     36 C           5.4171   -7.5649   10.5232 C.2     2  APM22       0.9487
     37 CA          5.6965   -9.0091   10.1815 C.3     2  APM22       0.2962
     38 CB          5.3105   -9.4289    8.7328 C.3     2  APM22      -0.4000
     39 CG          4.0424   -8.7162    8.2410 C.ar    2  APM22       0.1565
     40 CD1         2.8005   -9.3626    8.2147 C.ar    2  APM22      -0.1244
     41 CD2         4.1374   -7.3953    7.7946 C.ar    2  APM22      -0.1006
     42 CE1         1.6389   -8.6825    7.8260 C.ar    2  APM22      -0.4056
     43 CE2         2.9884   -6.7059    7.4030 C.ar    2  APM22      -0.1636
     44 CZ          1.7416   -7.3354    7.4572 C.ar    2  APM22      -0.0397
     45 CF          0.2944   -9.3912    7.7989 C.3     2  APM22       1.1561
     46 O           4.4115   -7.2759   11.1575 O.2     2  APM22      -0.6819
     47 N           4.9559   -9.8161   11.1428 N.3     2  APM22      -1.0269
     48 NG1        -0.6871   -8.9003    7.0834 N.3     2  APM22      -1.0539
     49 NG2         0.1190  -10.4909    8.4884 N.3     2  APM22      -1.0291
     50 ****        6.6878   -2.7905   11.6226 H       5  NBUTYL5     0.0297
     51 ****        5.7712   -2.4979   10.1182 H       5  NBUTYL5     0.0227
     52 ****        7.5836   -0.7959   10.3992 H       5  NBUTYL5     0.0647
     53 ****        7.9029   -1.8019    8.9587 H       5  NBUTYL5     0.0411
     54 ****        8.8143   -2.0880   10.4707 H       5  NBUTYL5     0.0460
     55 H2          3.2120   -4.6609   16.4229 H       4  NAPHTHALENE4    0.1704
     56 H3          5.4652   -3.6297   16.5739 H       4  NAPHTHALENE4    0.1568
     57 H4          7.4116   -4.7470   15.5412 H       4  NAPHTHALENE4    0.1934
     58 H5          8.3533   -6.6222   14.2513 H       4  NAPHTHALENE4    0.2120
     59 H6          8.0473   -8.7625   13.0652 H       4  NAPHTHALENE4    0.2001
     60 H8          3.8540   -8.6861   13.9627 H       4  NAPHTHALENE4    0.2193
@<TRIPOS>BOND
     1    26    31    1
     2    29    30   ar
     3    29    34   ar
     4    29    58    1
     5    34     4   ar
     6    34    33   ar
     7    33     1   ar
     8    37     5    1
     9    38     6    1
    10    38     7    1
    11    40     8    1
    12    41     9    1
    13    43    10    1
    14    44    11    1
    15    47    12    1
    16    48    13    1
    17    48    14    1
    18    49    15    1
    19    49    16    1
    20    18    19    1
    21    19    20    1
    22    36    17    1
    23    20    21    1
    24    17    18    1
    25    18    22    1
    26    18    23    1
    27    19    24    1
    28    19    25    1
    29    33    32   ar
    30    26    28    2
    31    26    27    2
    32    32    31   ar
    33    32    60    1
    34    31    30   ar
    35    30    59    1
    36     1     2   ar
    37     1    35    1
    38    36    46    2
    39    37    36    1
    40    37    47    1
    41    38    37    1
    42    39    38    1
    43    39    41   ar
    44    40    39   ar
    45    42    40   ar
    46    45    42    1
    47    42    44   ar
    48    44    43   ar
    49    43    41   ar
    50    45    49    1
    51    45    48    1
    52    20    50    1
    53    20    51    1
    54    21    52    1
    55    21    53    1
    56    21    54    1
    57    47    26    1
    58     2     3   ar
    59     2    55    1
    60     3     4   ar
    61     3    56    1
    62     4    57    1
