@<TRIPOS>MOLECULE
76x
 68 71 0 0 0
SMALL
USER_CHARGES

@<TRIPOS>ATOM
      1 C1          3.8910   -6.3576   15.2950 C.ar    3  NAPHTHALENE3   -0.2300
      2 C2          4.0745   -5.1419   15.9571 C.ar    3  NAPHTHALENE3   -0.1334
      3 C3          5.3485   -4.5758   16.0342 C.ar    3  NAPHTHALENE3   -0.0390
      4 C4          6.4418   -5.2400   15.4663 C.ar    3  NAPHTHALENE3   -0.3490
      5 ****        6.7364   -9.4389   10.3517 H       2  APM22       0.0830
      6 ****        5.1102  -10.6054    8.6905 H       2  APM22       0.1742
      7 ****        6.0682   -9.3172    7.9967 H       2  APM22       0.1340
      8 ****        2.7185  -10.4286    8.5004 H       2  APM22       0.2003
      9 ****        5.1065   -6.9367    7.7800 H       2  APM22       0.1714
     10 ****        3.0834   -5.6804    7.1262 H       2  APM22       0.2030
     11 ****        0.8614   -6.7517    7.2438 H       2  APM22       0.1633
     12 ****        3.9214   -9.9638   11.0047 H       2  APM22       0.3801
     13 ****       -1.6049   -9.3558    7.0659 H       2  APM22       0.5738
     14 ****       -0.5436   -8.0384    6.5421 H       2  APM22       0.5559
     15 ****        0.8819  -10.8749    9.0846 H       2  APM22       0.5504
     16 ****       -0.7751  -11.0002    8.4767 H       2  APM22       0.5747
     17 C1          9.1101   -4.5284   10.4953 C.3     4  CYCLOOCTANE4    0.0671
     18 C2          9.7278   -5.9519   10.5970 C.3     4  CYCLOOCTANE4   -0.0792
     19 C3          8.7551   -7.1664   10.4994 C.3     4  CYCLOOCTANE4   -0.0468
     20 C4          7.6506   -7.0194    9.4069 C.3     4  CYCLOOCTANE4    0.0784
     21 N5          6.3807   -6.6715   10.0474 N.am    4  CYCLOOCTANE4   -0.7325
     22 C6          6.0617   -5.2785   10.3783 C.3     4  CYCLOOCTANE4    0.0724
     23 C7          6.7461   -4.8890   11.7204 C.3     4  CYCLOOCTANE4   -0.0284
     24 S           5.6203  -10.4660   12.6700 S.O2    1  TOS11       2.2582
     25 O1          6.8969  -11.0810   12.3580 O.2     1  TOS11      -0.9160
     26 O2          4.6206  -11.2320   13.3905 O.2     1  TOS11      -0.9424
     27 C5          7.3599   -7.1845   14.3250 C.ar    3  NAPHTHALENE3   -0.2815
     28 C6          7.1763   -8.4127   13.6861 C.ar    3  NAPHTHALENE3   -0.0697
     29 C7          5.8918   -8.9380   13.5322 C.ar    3  NAPHTHALENE3   -0.4711
     30 C8          4.7961   -8.2401   14.0526 C.ar    3  NAPHTHALENE3   -0.1728
     31 C9          4.9777   -7.0260   14.7285 C.ar    3  NAPHTHALENE3    0.1252
     32 C10         6.2684   -6.4844   14.8431 C.ar    3  NAPHTHALENE3    0.2402
     33 H1          2.8892   -6.7769   15.2287 H       3  NAPHTHALENE3    0.1838
     34 C           5.5227   -7.6434   10.4683 C.2     2  APM22       0.7502
     35 CA          5.6981   -9.1256   10.1809 C.3     2  APM22       0.4042
     36 CB          5.2788   -9.5184    8.7320 C.3     2  APM22      -0.4592
     37 CG          4.0340   -8.7528    8.2544 C.ar    2  APM22       0.1661
     38 CD1         2.7852   -9.3816    8.2317 C.ar    2  APM22      -0.1246
     39 CD2         4.1404   -7.4266    7.8285 C.ar    2  APM22      -0.0356
     40 CE1         1.6348   -8.6835    7.8462 C.ar    2  APM22      -0.3856
     41 CE2         2.9972   -6.7142    7.4493 C.ar    2  APM22      -0.1844
     42 CZ          1.7443   -7.3349    7.4898 C.ar    2  APM22      -0.0523
     43 CF          0.2920   -9.3924    7.8156 C.3     2  APM22       1.1256
     44 O           4.5232   -7.3669   11.1118 O.2     2  APM22      -0.6586
     45 N           4.9058   -9.8638   11.1621 N.3     2  APM22      -1.0260
     46 NG1        -0.6833   -8.8940    7.0988 N.3     2  APM22      -1.0468
     47 NG2         0.1239  -10.4955    8.4992 N.3     2  APM22      -1.0189
     48 C8          8.1012   -4.1156   11.6077 C.3     4  CYCLOOCTANE4   -0.0609
     49 H9          8.6691   -4.3464    9.5089 H       4  CYCLOOCTANE4   -0.0006
     50 H10         9.9589   -3.8248   10.5668 H       4  CYCLOOCTANE4   -0.0061
     51 H3         10.2913   -6.0383   11.5408 H       4  CYCLOOCTANE4    0.0480
     52 H4         10.4589   -6.0380    9.7755 H       4  CYCLOOCTANE4    0.0225
     53 H5          8.2894   -7.3810   11.4743 H       4  CYCLOOCTANE4    0.0281
     54 H6          9.3724   -8.0542   10.2748 H       4  CYCLOOCTANE4    0.0467
     55 H7          7.5816   -7.9461    8.8266 H       4  CYCLOOCTANE4    0.0437
     56 H8          7.9099   -6.2812    8.6409 H       4  CYCLOOCTANE4    0.1239
     57 H2          3.2270   -4.6337   16.4101 H       3  NAPHTHALENE3    0.1634
     58 H3          5.4924   -3.6253   16.5375 H       3  NAPHTHALENE3    0.1584
     59 H4          7.4237   -4.7820   15.5163 H       3  NAPHTHALENE3    0.2079
     60 H5          8.3663   -6.7776   14.4080 H       3  NAPHTHALENE3    0.2097
     61 H6          8.0368   -8.9520   13.3026 H       3  NAPHTHALENE3    0.1723
     62 H8          3.8020   -8.6511   13.9269 H       3  NAPHTHALENE3    0.2168
     63 H11         4.9714   -5.1616   10.4790 H       4  CYCLOOCTANE4    0.0729
     64 H12         6.3388   -4.5924    9.5647 H       4  CYCLOOCTANE4    0.1057
     65 H13         6.8685   -5.7927   12.3239 H       4  CYCLOOCTANE4    0.0322
     66 H14         6.0662   -4.2457   12.3024 H       4  CYCLOOCTANE4    0.0343
     67 H15         7.8606   -3.0522   11.4198 H       4  CYCLOOCTANE4    0.0157
     68 H16         8.6081   -4.1662   12.5891 H       4  CYCLOOCTANE4    0.0357
@<TRIPOS>BOND
     1    24    29    1
     2    27    28   ar
     3    27    32   ar
     4    27    60    1
     5    32     4   ar
     6    32    31   ar
     7    31     1   ar
     8    35     5    1
     9    36     6    1
    10    36     7    1
    11    38     8    1
    12    39     9    1
    13    41    10    1
    14    42    11    1
    15    45    12    1
    16    46    13    1
    17    46    14    1
    18    47    15    1
    19    47    16    1
    20    34    21   am
    21    17    50    1
    22    17    49    1
    23    17    18    1
    24    17    48    1
    25    48    23    1
    26    48    67    1
    27    48    68    1
    28    23    22    1
    29    23    65    1
    30    31    30   ar
    31    24    26    2
    32    24    25    2
    33    30    29   ar
    34    30    62    1
    35    29    28   ar
    36    28    61    1
    37     1     2   ar
    38     1    33    1
    39    34    44    2
    40    35    34    1
    41    35    45    1
    42    36    35    1
    43    37    36    1
    44    37    39   ar
    45    38    37   ar
    46    40    38   ar
    47    43    40    1
    48    40    42   ar
    49    42    41   ar
    50    41    39   ar
    51    43    47    1
    52    43    46    1
    53    23    66    1
    54    22    21    1
    55    22    63    1
    56    22    64    1
    57    21    20    1
    58    45    24    1
    59    20    19    1
    60    20    55    1
    61    20    56    1
    62     2     3   ar
    63     2    57    1
    64     3     4   ar
    65     3    58    1
    66     4    59    1
    67    19    18    1
    68    19    53    1
    69    19    54    1
    70    18    51    1
    71    18    52    1
