@<TRIPOS>MOLECULE
78x
 59 62 0 0 0
SMALL
USER_CHARGES

@<TRIPOS>ATOM
      1 C1          3.9009   -6.3669   15.3014 C.ar    4  NAPHTHALENE4   -0.2432
      2 C2          4.0662   -5.1515   15.9700 C.ar    4  NAPHTHALENE4   -0.1284
      3 C3          5.3332   -4.5690   16.0541 C.ar    4  NAPHTHALENE4   -0.0537
      4 C4          6.4327   -5.2041   15.4697 C.ar    4  NAPHTHALENE4   -0.2999
      5 ****        6.7857   -9.2724   10.3306 H       2  APM22       0.0198
      6 ****        5.1632  -10.5310    8.7169 H       2  APM22       0.1811
      7 ****        6.1042   -9.2493    7.9976 H       2  APM22       0.1755
      8 ****        2.7701  -10.3929    8.5036 H       2  APM22       0.2062
      9 ****        5.1076   -6.8785    7.7466 H       2  APM22       0.1784
     10 ****        3.0760   -5.6731    7.0320 H       2  APM22       0.2016
     11 ****        0.8713   -6.7519    7.1952 H       2  APM22       0.1597
     12 ****        3.9806   -9.9321   11.0017 H       2  APM22       0.3977
     13 ****       -1.5912   -9.3668    7.0550 H       2  APM22       0.5704
     14 ****       -0.5378   -8.0610    6.4987 H       2  APM22       0.5542
     15 ****        0.8829  -10.8595    9.0883 H       2  APM22       0.5438
     16 ****       -0.7681  -10.9833    8.4705 H       2  APM22       0.5716
     17 N1          6.3560   -6.5912   10.0818 N.am    3  PYRROLIDINE3   -0.3794
     18 C1          7.5852   -6.8739    9.3493 C.3     3  PYRROLIDINE3    0.1682
     19 C2          7.9470   -5.4446    8.8803 C.3     3  PYRROLIDINE3   -0.2276
     20 C3          7.4447   -4.5640   10.0459 C.3     3  PYRROLIDINE3   -0.0790
     21 C4          6.0780   -5.1992   10.3957 C.3     3  PYRROLIDINE3    0.0201
     22 H2          7.4878   -7.5271    8.4721 H       3  PYRROLIDINE3    0.0182
     23 H3          8.3497   -7.2753   10.0340 H       3  PYRROLIDINE3    0.0474
     24 S           5.7015  -10.4091   12.6200 S.O2    1  TOS11       2.2643
     25 O1          6.9926  -10.9897   12.3029 O.2     1  TOS11      -0.9232
     26 O2          4.7238  -11.1961   13.3473 O.2     1  TOS11      -0.9535
     27 C5          7.3679   -7.0608   14.2065 C.ar    4  NAPHTHALENE4   -0.2660
     28 C6          7.2018   -8.2773   13.5405 C.ar    4  NAPHTHALENE4   -0.1205
     29 C7          5.9382   -8.8688   13.4687 C.ar    4  NAPHTHALENE4   -0.4416
     30 C8          4.8399   -8.2260   14.0460 C.ar    4  NAPHTHALENE4   -0.2168
     31 C9          5.0001   -7.0062   14.7141 C.ar    4  NAPHTHALENE4    0.1872
     32 C10         6.2706   -6.4216   14.7971 C.ar    4  NAPHTHALENE4    0.1872
     33 H1          2.9104   -6.8085   15.2436 H       4  NAPHTHALENE4    0.1870
     34 C           5.4965   -7.5617   10.4827 C.2     2  APM22       0.4307
     35 CA          5.7232   -9.0279   10.1796 C.3     2  APM22       0.5510
     36 CB          5.3131   -9.4419    8.7335 C.3     2  APM22      -0.5663
     37 CG          4.0579   -8.7033    8.2428 C.ar    2  APM22       0.1959
     38 CD1         2.8161   -9.3476    8.2198 C.ar    2  APM22      -0.1317
     39 CD2         4.1484   -7.3816    7.7920 C.ar    2  APM22      -0.0300
     40 CE1         1.6535   -8.6734    7.8222 C.ar    2  APM22      -0.3770
     41 CE2         3.0004   -6.6969    7.3883 C.ar    2  APM22      -0.1851
     42 CZ          1.7550   -7.3284    7.4443 C.ar    2  APM22      -0.0468
     43 CF          0.3111   -9.3867    7.7965 C.3     2  APM22       1.1078
     44 O           4.4896   -7.2832   11.1178 O.2     2  APM22      -0.6127
     45 N           4.9640   -9.8118   11.1487 N.3     2  APM22      -1.0346
     46 NG1        -0.6696   -8.9046    7.0737 N.3     2  APM22      -1.0450
     47 NG2         0.1331  -10.4822    8.4928 N.3     2  APM22      -1.0049
     48 H4          7.3701   -5.1937    7.9700 H       3  PYRROLIDINE3    0.1048
     49 H5          9.0220   -5.3254    8.6661 H       3  PYRROLIDINE3    0.1061
     50 H6          7.3696   -3.4981    9.7772 H       3  PYRROLIDINE3    0.0818
     51 H7          8.1360   -4.6744   10.8977 H       3  PYRROLIDINE3    0.0637
     52 H8          5.8101   -5.0331   11.4510 H       3  PYRROLIDINE3    0.0755
     53 H9          5.2785   -4.8234    9.7355 H       3  PYRROLIDINE3    0.0782
     54 H2          3.2113   -4.6589   16.4237 H       4  NAPHTHALENE4    0.1657
     55 H3          5.4635   -3.6251   16.5744 H       4  NAPHTHALENE4    0.1612
     56 H4          7.4117   -4.7409   15.5434 H       4  NAPHTHALENE4    0.1920
     57 H5          8.3582   -6.6183   14.2617 H       4  NAPHTHALENE4    0.2104
     58 H6          8.0565   -8.7605   13.0793 H       4  NAPHTHALENE4    0.1954
     59 H8          3.8603   -8.6853   13.9673 H       4  NAPHTHALENE4    0.2288
@<TRIPOS>BOND
     1    24    29    1
     2    27    28   ar
     3    27    32   ar
     4    27    57    1
     5    32     4   ar
     6    32    31   ar
     7    31     1   ar
     8    35     5    1
     9    36     6    1
    10    36     7    1
    11    38     8    1
    12    39     9    1
    13    41    10    1
    14    42    11    1
    15    45    12    1
    16    46    13    1
    17    46    14    1
    18    47    15    1
    19    47    16    1
    20    34    17   am
    21    17    21    1
    22    17    18    1
    23    18    23    1
    24    18    22    1
    25    18    19    1
    26    19    49    1
    27    19    48    1
    28    31    30   ar
    29    24    26    2
    30    24    25    2
    31    30    29   ar
    32    30    59    1
    33    29    28   ar
    34    28    58    1
    35     1     2   ar
    36     1    33    1
    37    34    44    2
    38    35    34    1
    39    35    45    1
    40    36    35    1
    41    37    36    1
    42    37    39   ar
    43    38    37   ar
    44    40    38   ar
    45    43    40    1
    46    40    42   ar
    47    42    41   ar
    48    41    39   ar
    49    43    47    1
    50    43    46    1
    51    19    20    1
    52    20    51    1
    53    20    50    1
    54    20    21    1
    55    21    53    1
    56    21    52    1
    57    45    24    1
    58     2     3   ar
    59     2    54    1
    60     3     4   ar
    61     3    55    1
    62     4    56    1
