@<TRIPOS>MOLECULE
85x
 71 74 0 0 0
SMALL
USER_CHARGES

@<TRIPOS>ATOM
      1 C1          3.9023   -6.3617   15.2899 C.ar    4  NAPHTHALENE4   -0.2459
      2 C2          4.0735   -5.1483   15.9599 C.ar    4  NAPHTHALENE4   -0.1211
      3 C3          5.3426   -4.5701   16.0407 C.ar    4  NAPHTHALENE4   -0.0765
      4 C4          6.4384   -5.2076   15.4520 C.ar    4  NAPHTHALENE4   -0.2935
      5 ****        6.7484   -9.2889   10.3892 H       2  APM22       0.1344
      6 ****        5.2567  -10.5018    8.6529 H       2  APM22       0.1917
      7 ****        6.1546   -9.1099    8.0298 H       2  APM22       0.1678
      8 ****        2.7759  -10.4284    8.5240 H       2  APM22       0.2116
      9 ****        5.0661   -6.9097    7.6897 H       2  APM22       0.1784
     10 ****        3.0145   -5.6900    7.0789 H       2  APM22       0.2068
     11 ****        0.8195   -6.7979    7.2669 H       2  APM22       0.1621
     12 ****        3.9455   -9.9080   10.9633 H       2  APM22       0.3854
     13 ****       -1.6028   -9.3830    7.0827 H       2  APM22       0.5694
     14 ****       -0.5428   -8.0715    6.5479 H       2  APM22       0.5548
     15 ****        0.8866  -10.9132    9.0819 H       2  APM22       0.5402
     16 ****       -0.7752  -11.0263    8.4831 H       2  APM22       0.5710
     17 C           7.5663   -6.0634    8.0210 C.2     5  CO25        1.0472
     18 ****        7.7834   -7.7504    9.2155 H       3  PIP33       0.1624
     19 C19        10.0902   -6.2737    9.6122 C.3     3  PIP33      -0.5208
     20 ****        8.7071   -6.7258   11.2166 H       3  PIP33       0.0548
     21 ****        8.3816   -4.0445    9.7361 H       3  PIP33       0.1239
     22 ****       10.8809   -5.9409   10.3029 H       3  PIP33       0.1426
     23 ****        6.8423   -3.4738   11.6180 H       3  PIP33       0.0698
     24 ****        7.1098   -5.0758   12.3508 H       3  PIP33       0.0237
     25 ****        4.9837   -5.0853   11.1622 H       3  PIP33       0.0890
     26 ****        5.7168   -4.4932    9.6805 H       3  PIP33       0.0972
     27 S           5.6655  -10.4129   12.6094 S.O2    1  TOS11       2.2596
     28 O1          6.9495  -11.0100   12.2944 O.2     1  TOS11      -0.9248
     29 O2          4.6761  -11.1842   13.3360 O.2     1  TOS11      -0.9574
     30 C5          7.3654   -7.0741   14.1931 C.ar    4  NAPHTHALENE4   -0.2641
     31 C6          7.1901   -8.2853   13.5194 C.ar    4  NAPHTHALENE4   -0.1217
     32 C7          5.9229   -8.8709   13.4519 C.ar    4  NAPHTHALENE4   -0.4429
     33 C8          4.8297   -8.2203   14.0287 C.ar    4  NAPHTHALENE4   -0.1986
     34 C9          4.9989   -7.0039   14.6996 C.ar    4  NAPHTHALENE4    0.1705
     35 C10         6.2715   -6.4262   14.7827 C.ar    4  NAPHTHALENE4    0.2043
     36 H1          2.9109   -6.8004   15.2332 H       4  NAPHTHALENE4    0.1893
     37 C           5.4597   -7.5366   10.4707 C.2     2  APM22       0.5890
     38 CA          5.7081   -9.0056   10.1751 C.3     2  APM22       0.2807
     39 CB          5.3457   -9.4056    8.7155 C.3     2  APM22      -0.5354
     40 CG          4.0508   -8.7255    8.2363 C.ar    2  APM22       0.2057
     41 CD1         2.8146   -9.3846    8.2347 C.ar    2  APM22      -0.1552
     42 CD2         4.1124   -7.4084    7.7740 C.ar    2  APM22      -0.0262
     43 CE1         1.6432   -8.7151    7.8515 C.ar    2  APM22      -0.3615
     44 CE2         2.9532   -6.7207    7.4141 C.ar    2  APM22      -0.1895
     45 CZ          1.7170   -7.3656    7.4892 C.ar    2  APM22      -0.0539
     46 CF          0.3004   -9.4255    7.8196 C.3     2  APM22       1.0993
     47 O           4.4179   -7.3398   11.0774 O.2     2  APM22      -0.6051
     48 N           4.9280   -9.7981   11.1182 N.3     2  APM22      -0.9617
     49 NG1        -0.6791   -8.9253    7.1080 N.3     2  APM22      -1.0418
     50 NG2         0.1279  -10.5286    8.5018 N.3     2  APM22      -0.9940
     51 N1          6.2785   -6.4929   10.1249 N.am    3  PIP33      -0.4414
     52 C2          7.5451   -6.6968    9.3968 C.3     3  PIP33      -0.4246
     53 C3          8.6934   -6.1370   10.2826 C.3     3  PIP33       0.3549
     54 C4          8.4039   -4.6576   10.6510 C.3     3  PIP33      -0.3268
     55 C5          7.0500   -4.5339   11.3948 C.3     3  PIP33       0.0038
     56 C6          5.8997   -5.1360   10.5517 C.3     3  PIP33      -0.0039
     57 ****       10.1540   -5.6641    8.6988 H       3  PIP33       0.1458
     58 ****       10.2887   -7.3231    9.3474 H       3  PIP33       0.1337
     59 ****        9.2048   -4.2733   11.3044 H       3  PIP33       0.1024
     60 H2          3.2212   -4.6550   16.4176 H       4  NAPHTHALENE4    0.1657
     61 H3          5.4762   -3.6264   16.5607 H       4  NAPHTHALENE4    0.1686
     62 H4          7.4184   -4.7453   15.5210 H       4  NAPHTHALENE4    0.1920
     63 H5          8.3588   -6.6398   14.2528 H       4  NAPHTHALENE4    0.2036
     64 H6          8.0403   -8.7694   13.0507 H       4  NAPHTHALENE4    0.1968
     65 H8          3.8472   -8.6730   13.9486 H       4  NAPHTHALENE4    0.2228
     66 O           6.8183   -5.1502    7.7121 O.2     5  CO25       -0.6154
     67 O           8.4611   -6.6025    7.1746 O.3     5  CO25       -0.4992
     68 ****        8.5961   -5.9607    5.8880 C.3     5  CO25       -0.0343
     69 ****        9.5729   -5.4560    5.8437 H       5  CO25        0.0883
     70 ****        7.8169   -5.2404    5.5950 H       5  CO25        0.0611
     71 ****        8.5944   -6.7713    5.1460 H       5  CO25        0.1365
@<TRIPOS>BOND
     1    27    32    1
     2    30    31   ar
     3    30    35   ar
     4    30    63    1
     5    35     4   ar
     6    35    34   ar
     7    34     1   ar
     8    38     5    1
     9    39     6    1
    10    39     7    1
    11    41     8    1
    12    42     9    1
    13    44    10    1
    14    45    11    1
    15    48    12    1
    16    49    13    1
    17    49    14    1
    18    50    15    1
    19    50    16    1
    20    17    66    2
    21    52    18    1
    22    53    19    1
    23    53    20    1
    24    54    21    1
    25    19    22    1
    26    55    23    1
    27    55    24    1
    28    56    25    1
    29    56    26    1
    30    34    33   ar
    31    27    29    2
    32    27    28    2
    33    33    32   ar
    34    33    65    1
    35    32    31   ar
    36    31    64    1
    37     1     2   ar
    38     1    36    1
    39    37    47    2
    40    38    37    1
    41    38    48    1
    42    39    38    1
    43    40    39    1
    44    40    42   ar
    45    41    40   ar
    46    43    41   ar
    47    46    43    1
    48    43    45   ar
    49    45    44   ar
    50    44    42   ar
    51    46    50    1
    52    46    49    1
    53    51    56    1
    54    52    51    1
    55    53    52    1
    56    54    53    1
    57    54    55    1
    58    55    56    1
    59    37    51   am
    60    48    27    1
    61    19    57    1
    62    19    58    1
    63    54    59    1
    64     2     3   ar
    65     2    60    1
    66     3     4   ar
    67     3    61    1
    68     4    62    1
    69    17    67    1
    70    52    17    1
    71    67    68    1
    72    68    69    1
    73    68    70    1
    74    68    71    1
