@<TRIPOS>MOLECULE
87x
 73 74 0 0 0
SMALL
USER_CHARGES

@<TRIPOS>ATOM
      1 C1          3.8782   -7.9714   13.7326 C.3     1  TOS11       0.3045
      2 ****        5.2081   -5.7947   14.5207 H       1  TOS11       0.2279
      3 C3          7.7463   -4.9570   14.9592 C.3     1  TOS11       0.1434
      4 C4          8.8779   -9.5806   13.3783 C.3     1  TOS11       0.3589
      5 ****        9.2129   -7.0060   13.8637 H       1  TOS11       0.2378
      6 ****        3.5799   -8.8338   13.1317 H       1  TOS11      -0.0205
      7 C7          8.6381   -4.1123   14.0294 C.3     1  TOS11      -0.2983
      8 ****        6.8031   -9.2575   10.1936 H       2  APM22       0.0763
      9 ****        5.2674  -10.5781    8.5359 H       2  APM22       0.1498
     10 ****        6.1851   -9.2198    7.8555 H       2  APM22       0.1026
     11 ****        2.7964  -10.4562    8.4116 H       2  APM22       0.2028
     12 ****        5.1412   -6.9984    7.4376 H       2  APM22       0.2001
     13 ****        3.0819   -5.7196    6.9692 H       2  APM22       0.2020
     14 ****        0.8727   -6.7789    7.2537 H       2  APM22       0.1596
     15 ****        3.9648   -9.7888   10.8805 H       2  APM22       0.3315
     16 ****       -1.6022   -9.3301    7.1126 H       2  APM22       0.5740
     17 ****       -0.5379   -8.0301    6.5592 H       2  APM22       0.5567
     18 ****        0.9214  -10.9181    9.0225 H       2  APM22       0.5460
     19 ****       -0.7589  -10.9997    8.4734 H       2  APM22       0.5739
     20 N20         6.4816   -6.6411    9.9719 N.am    2  APM22      -0.7434
     21 ****        7.4263   -6.9265    9.7931 H       2  APM22       0.4501
     22 C22         6.1905   -5.2117   10.0443 C.3     2  APM22      -0.0042
     23 ****        6.8178   -4.7411   10.8168 H       2  APM22       0.0772
     24 ****        5.1333   -5.0173   10.2958 H       2  APM22       0.1203
     25 ****        6.4035   -4.7359    9.0745 H       2  APM22       0.0655
     26 S           5.7340  -10.2836   12.4999 S.O2    1  TOS11       2.3170
     27 O1          6.7811  -11.1448   12.0001 O.2     1  TOS11      -0.9430
     28 O2          4.7355  -10.8828   13.3669 O.2     1  TOS11      -0.9638
     29 C1          6.3551   -8.7648   13.2817 C.ar    1  TOS11      -0.8389
     30 C2          5.4267   -7.7854   13.7065 C.ar    1  TOS11       0.4635
     31 C3          5.9025   -6.5630   14.2015 C.ar    1  TOS11      -0.5834
     32 C4          7.2644   -6.2827   14.3235 C.ar    1  TOS11       0.3539
     33 C5          8.1601   -7.2585   13.8861 C.ar    1  TOS11      -0.3966
     34 C6          7.7327   -8.5359   13.4984 C.ar    1  TOS11       0.1148
     35 C39         8.4806   -5.2787   16.2856 C.3     1  TOS11      -0.3420
     36 C           5.4900   -7.5468   10.1229 C.2     2  APM22       0.6227
     37 CA          5.7486   -9.0263    9.9922 C.3     2  APM22       0.2714
     38 CB          5.3755   -9.4841    8.5525 C.3     2  APM22      -0.3448
     39 CG          4.0944   -8.7840    8.0684 C.ar    2  APM22       0.1563
     40 CD1         2.8461   -9.4144    8.1153 C.ar    2  APM22      -0.1324
     41 CD2         4.1761   -7.4718    7.5808 C.ar    2  APM22      -0.0680
     42 CE1         1.6757   -8.7225    7.7792 C.ar    2  APM22      -0.3781
     43 CE2         3.0145   -6.7552    7.2910 C.ar    2  APM22      -0.1818
     44 CZ          1.7677   -7.3694    7.4230 C.ar    2  APM22      -0.0473
     45 CF          0.3230   -9.4091    7.7896 C.3     2  APM22       1.1346
     46 O           4.3329   -7.2507   10.3266 O.2     2  APM22      -0.5734
     47 N           4.9496   -9.6815   11.0239 N.3     2  APM22      -0.9476
     48 NG1        -0.6725   -8.8867    7.1139 N.3     2  APM22      -1.0595
     49 NG2         0.1515  -10.5162    8.4688 N.3     2  APM22      -1.0151
     50 ****        6.8776   -4.3257   15.1987 H       1  TOS11       0.0489
     51 C64         2.9916   -6.8006   13.2032 C.3     1  TOS11      -0.3408
     52 C65         3.4636   -8.2447   15.2037 C.3     1  TOS11      -0.3775
     53 ****        8.5024  -10.5983   13.2714 H       1  TOS11       0.0440
     54 C67         9.6947   -9.7021   14.6975 C.3     1  TOS11      -0.3798
     55 C68         9.8059   -9.2777   12.1690 C.3     1  TOS11      -0.4021
     56 ****        9.5264   -4.6799   13.7445 H       1  TOS11       0.0811
     57 ****        8.9663   -3.1734   14.4978 H       1  TOS11       0.1039
     58 ****        8.0477   -3.8759   13.1404 H       1  TOS11       0.0446
     59 ****        7.7976   -5.8450   16.9445 H       1  TOS11       0.0754
     60 ****        8.7652   -4.3387   16.7901 H       1  TOS11       0.1115
     61 ****        9.3960   -5.8797   16.1282 H       1  TOS11       0.0899
     62 ****        3.1182   -5.8553   13.7432 H       1  TOS11       0.1010
     63 ****        1.9292   -7.0731   13.2932 H       1  TOS11       0.0752
     64 ****        3.1602   -6.5837   12.1496 H       1  TOS11       0.0694
     65 ****        4.0316   -9.0922   15.6157 H       1  TOS11       0.0909
     66 ****        2.3895   -8.4812   15.2734 H       1  TOS11       0.0991
     67 ****        3.6581   -7.3576   15.8281 H       1  TOS11       0.0958
     68 ****       10.1929   -8.7678   14.9894 H       1  TOS11       0.0975
     69 ****       10.4780  -10.4701   14.5893 H       1  TOS11       0.1063
     70 ****        9.0291  -10.0076   15.5208 H       1  TOS11       0.0865
     71 ****        9.2232   -9.2733   11.2368 H       1  TOS11       0.0651
     72 ****       10.5881  -10.0471   12.0822 H       1  TOS11       0.1291
     73 ****       10.3097   -8.3057   12.2634 H       1  TOS11       0.0941
@<TRIPOS>BOND
     1    30     1    1
     2    31     2    1
     3    32     3    1
     4    34     4    1
     5    33     5    1
     6     1     6    1
     7     3     7    1
     8    37     8    1
     9    38     9    1
    10    38    10    1
    11    40    11    1
    12    41    12    1
    13    43    13    1
    14    44    14    1
    15    47    15    1
    16    48    16    1
    17    48    17    1
    18    49    18    1
    19    49    19    1
    20    36    20   am
    21    20    21    1
    22    20    22    1
    23    22    23    1
    24    22    24    1
    25    22    25    1
    26    29    26    1
    27    26    28    2
    28    26    27    2
    29    29    34   ar
    30    30    29   ar
    31    31    30   ar
    32    32    31   ar
    33     3    35    1
    34    32    33   ar
    35    33    34   ar
    36    36    46    2
    37    37    36    1
    38    37    47    1
    39    38    37    1
    40    39    38    1
    41    39    41   ar
    42    40    39   ar
    43    42    40   ar
    44    45    42    1
    45    42    44   ar
    46    44    43   ar
    47    43    41   ar
    48    45    49    1
    49    45    48    1
    50    47    26    1
    51     3    50    1
    52     1    51    1
    53     1    52    1
    54     4    53    1
    55     4    54    1
    56     4    55    1
    57     7    56    1
    58     7    57    1
    59     7    58    1
    60    35    59    1
    61    35    60    1
    62    35    61    1
    63    51    62    1
    64    51    63    1
    65    51    64    1
    66    52    65    1
    67    52    66    1
    68    52    67    1
    69    54    68    1
    70    54    69    1
    71    54    70    1
    72    55    71    1
    73    55    72    1
    74    55    73    1
