@<TRIPOS>MOLECULE
GHSM.27.pdb
 82 86 0 0 0
SMALL
GASTEIGER

@<TRIPOS>ATOM
      1  C1        -0.9640    1.1750    1.8880 C.ar    1  BEN1       -0.0568
      2  C2         0.2050    1.8850    2.1730 C.ar    1  BEN1       -0.0614
      3  C3         0.2150    3.2800    2.0840 C.ar    1  BEN1       -0.0600
      4  C4        -0.9420    3.9610    1.6970 C.ar    1  BEN1       -0.0400
      5  C5        -2.1180    3.2540    1.4270 C.ar    1  BEN1        0.0398
      6  C6        -2.1330    1.8580    1.5330 C.ar    1  BEN1       -0.0259
      7  H7        -0.9580    0.0910    1.9460 H       1  BEN1        0.0621
      8  H8         1.1070    1.3540    2.4630 H       1  BEN1        0.0618
      9  H9         1.1220    3.8320    2.3130 H       1  BEN1        0.0618
     10  H10       -0.9190    5.0410    1.5980 H       1  BEN1        0.0636
     11 N11_       -3.2970    3.9490    1.0370 N.am    1  BEN1       -0.2653
     12 C12_       -3.4380    1.0980    1.2630 C.3     1  BEN1       -0.0238
     13 C13_       -3.7550    1.0810   -0.2550 C.3     1  BEN1       -0.0219
     14 C14_       -3.5100    2.4530   -0.9390 C.3     1  BEN1        0.1002
     15 C15_       -4.0030    3.5810   -0.0590 C.2     1  BEN1        0.2404
     16 O16_       -5.0410    4.1400   -0.3760 O.2     1  BEN1       -0.2732
     17 C17_       -3.8180    5.0300    1.8730 C.3     1  BEN1        0.0449
     18  H18       -4.2490    1.6070    1.8040 H       1  BEN1        0.0314
     19  H19       -3.3930    0.0670    1.6490 H       1  BEN1        0.0314
     20  H20       -4.8090    0.7920   -0.3910 H       1  BEN1        0.0291
     21  H21       -3.1290    0.3250   -0.7570 H       1  BEN1        0.0291
     22 N22_       -4.2200    2.4680   -2.2160 N.am    1  BEN1       -0.3039
     23  H23       -2.4330    2.6200   -1.1100 H       1  BEN1        0.0595
     24  C1        -7.4740    4.2900    2.7790 C.ar    2  BEN2       -0.0537
     25  C2        -7.3140    3.2630    3.7130 C.ar    2  BEN2       -0.0170
     26  C3        -6.0330    2.9030    4.1410 C.ar    2  BEN2       -0.0537
     27  C4        -4.9120    3.5130    3.5730 C.ar    2  BEN2       -0.0565
     28  C5        -5.0660    4.4750    2.5690 C.ar    2  BEN2       -0.0297
     29  C6        -6.3510    4.8940    2.2060 C.ar    2  BEN2       -0.0565
     30  H30       -4.0520    5.9130    1.2580 H       1  BEN1        0.0518
     31  H31       -3.1090    5.3460    2.6540 H       1  BEN1        0.0518
     32  H32       -5.1150    2.9130   -2.2520 H       1  BEN1        0.1494
     33  H33       -8.4700    4.6130    2.4910 H       2  BEN2        0.0624
     34  H34       -5.9070    2.1460    4.9090 H       2  BEN2        0.0624
     35  H35       -3.9190    3.2310    3.9100 H       2  BEN2        0.0621
     36  C1        -9.4590    3.2510    4.9660 C.ar    3  BEN3       -0.0532
     37  C2        -8.4910    2.5400    4.2500 C.ar    3  BEN3       -0.0026
     38  C3        -8.6260    1.1580    4.0600 C.ar    3  BEN3        0.0787
     39  C4        -9.6840    0.4850    4.6820 C.ar    3  BEN3       -0.0459
     40  C5       -10.6360    1.1900    5.4240 C.ar    3  BEN3       -0.0609
     41  C6       -10.5340    2.5770    5.5510 C.ar    3  BEN3       -0.0611
     42  H42       -6.4850    5.6820    1.4720 H       2  BEN2        0.0621
     43  H43       -9.3730    4.3270    5.0750 H       3  BEN3        0.0624
     44  H44       -9.7720   -0.5930    4.5860 H       3  BEN3        0.0626
     45  H45      -11.4560    0.6590    5.9000 H       3  BEN3        0.0618
     46  N1        -7.0840    0.8130    2.1300 N.ar    4  TET4       -0.0576
     47  N2        -6.3170   -0.1930    1.6650 N.ar    4  TET4        0.1370
     48  N3        -6.4740   -1.2270    2.5090 N.ar    4  TET4        0.0227
     49  N4        -7.3800   -0.8370    3.5280 N.ar    4  TET4       -0.0564
     50  C1        -7.6600    0.3610    3.2060 C.ar    4  TET4        0.3568
     51  H51      -11.2860    3.1300    6.1060 H       3  BEN3        0.0618
     52  H52       -7.2040    1.7340    1.6900 H       4  TET4        0.4932
     53 C53_       -3.7040    1.8390   -3.2890 C.2     1  BEN1        0.2154
     54 O54_       -2.6350    1.2540   -3.2320 O.2     1  BEN1       -0.2757
     55 C55_       -4.4610    1.8620   -4.5930 C.3     1  BEN1        0.0417
     56 C56_       -5.8790    1.2300   -4.4500 C.3     1  BEN1        0.0218
     57  H57       -3.8850    1.2940   -5.3400 H       1  BEN1        0.0376
     58  H58       -4.5100    2.9000   -4.9470 H       1  BEN1        0.0376
     59 C59_       -5.7200   -0.2240   -3.9110 C.3     1  BEN1       -0.0466
     60 N60_       -6.7150    1.9970   -3.4820 N.3     1  BEN1       -0.3105
     61 C61_       -6.5620    1.1720   -5.8460 C.3     1  BEN1       -0.0466
     62  H62       -6.6880   -0.7480   -3.9050 H       1  BEN1        0.0247
     63  C63       -7.2060    3.3540   -3.8370 C.3     1  BEN1       -0.0013
     64  H64       -5.3340   -0.2120   -2.8800 H       1  BEN1        0.0247
     65  H65       -5.0230   -0.8040   -4.5360 H       1  BEN1        0.0247
     66  H66       -7.5470    1.3930   -3.1400 H       1  BEN1        0.1224
     67  H67       -6.5670    2.1610   -6.3280 H       1  BEN1        0.0247
     68  H68       -7.6020    0.8250   -5.7450 H       1  BEN1        0.0247
     69  H69       -6.0270    0.4780   -6.5120 H       1  BEN1        0.0247
     70  H70       -7.9020    3.3000   -4.6900 H       1  BEN1        0.0425
     71  H71       -6.3750    4.0190   -4.1130 H       1  BEN1        0.0425
     72  C72       -7.9650    3.9920   -2.6410 C.3     1  BEN1       -0.0145
     73  C73       -8.4300    5.4380   -2.9640 C.3     1  BEN1        0.0536
     74  H74       -8.8500    3.3790   -2.4040 H       1  BEN1        0.0302
     75  H75       -7.3110    4.0050   -1.7550 H       1  BEN1        0.0302
     76  H76       -7.5400    6.0590   -3.1720 H       1  BEN1        0.0591
     77  C77       -9.2080    6.0480   -1.7680 C.3     1  BEN1       -0.0389
     78  O78       -9.2770    5.3880   -4.1260 O.3     1  BEN1       -0.3920
     79  H79       -8.5810    6.0600   -0.8630 H       1  BEN1        0.0254
     80  H80      -10.1140    5.4550   -1.5660 H       1  BEN1        0.0254
     81  H81       -9.5840    6.2450   -4.4050 H       1  BEN1        0.2098
     82  H83       -9.5110    7.0810   -1.9980 H       1  BEN1        0.0254
@<TRIPOS>BOND
     1     1     2   ar
     2     1     6   ar
     3     1     7    1
     4     2     8    1
     5     2     3   ar
     6     3     4   ar
     7     3     9    1
     8     4     5   ar
     9     4    10    1
    10     5     6   ar
    11     5    11    1
    12     6    12    1
    13    11    15   am
    14    11    17    1
    15    12    13    1
    16    12    18    1
    17    12    19    1
    18    13    14    1
    19    13    20    1
    20    13    21    1
    21    14    15    1
    22    14    22    1
    23    14    23    1
    24    15    16    2
    25    17    30    1
    26    17    31    1
    27    17    28    1
    28    22    32    1
    29    22    53   am
    30    24    25   ar
    31    24    29   ar
    32    24    33    1
    33    25    26   ar
    34    25    37    1
    35    26    27   ar
    36    26    34    1
    37    27    28   ar
    38    27    35    1
    39    28    29   ar
    40    29    42    1
    41    36    37   ar
    42    36    41   ar
    43    36    43    1
    44    37    38   ar
    45    38    39   ar
    46    38    50    1
    47    39    40   ar
    48    39    44    1
    49    40    41   ar
    50    40    45    1
    51    41    51    1
    52    46    47   ar
    53    46    50   ar
    54    46    52    1
    55    47    48   ar
    56    48    49   ar
    57    49    50   ar
    58    53    54    2
    59    53    55    1
    60    55    56    1
    61    55    57    1
    62    55    58    1
    63    56    59    1
    64    56    60    1
    65    56    61    1
    66    59    62    1
    67    59    64    1
    68    59    65    1
    69    60    63    1
    70    60    66    1
    71    61    67    1
    72    61    68    1
    73    61    69    1
    74    63    70    1
    75    63    71    1
    76    63    72    1
    77    72    73    1
    78    72    74    1
    79    72    75    1
    80    73    76    1
    81    73    77    1
    82    73    78    1
    83    77    79    1
    84    77    80    1
    85    77    82    1
    86    78    81    1
