@<TRIPOS>MOLECULE
GHSM.10.pdb
 72 76 0 0 0
SMALL
GASTEIGER

@<TRIPOS>ATOM
      1  C1        -0.9690    1.1770    1.9150 C.ar    1  BEN1       -0.0568
      2  C2         0.1910    1.8930    2.2240 C.ar    1  BEN1       -0.0614
      3  C3         0.1970    3.2870    2.1300 C.ar    1  BEN1       -0.0600
      4  C4        -0.9540    3.9620    1.7170 C.ar    1  BEN1       -0.0400
      5  C5        -2.1240    3.2510    1.4310 C.ar    1  BEN1        0.0398
      6  C6        -2.1330    1.8540    1.5330 C.ar    1  BEN1       -0.0259
      7 H7__       -0.9590    0.0940    1.9740 H       1  BEN1        0.0621
      8 H8__        1.0870    1.3650    2.5370 H       1  BEN1        0.0618
      9 H9__        1.0970    3.8440    2.3750 H       1  BEN1        0.0618
     10 H10_       -0.9320    5.0410    1.6120 H       1  BEN1        0.0636
     11 N11_       -3.3020    3.9430    1.0300 N.am    1  BEN1       -0.2653
     12 C12_       -3.4250    1.0870    1.2310 C.3     1  BEN1       -0.0238
     13 C13_       -3.6930    1.0700   -0.2960 C.3     1  BEN1       -0.0219
     14 C14_       -3.4910    2.4590   -0.9580 C.3     1  BEN1        0.1002
     15 C15_       -3.9990    3.5750   -0.0730 C.2     1  BEN1        0.2404
     16 O16_       -5.0410    4.1250   -0.3930 O.2     1  BEN1       -0.2732
     17 C17_       -3.8300    5.0200    1.8670 C.3     1  BEN1        0.0449
     18 H18_       -4.2540    1.5900    1.7520 H       1  BEN1        0.0314
     19 H19_       -3.3820    0.0550    1.6160 H       1  BEN1        0.0314
     20 H20_       -4.7310    0.7370   -0.4620 H       1  BEN1        0.0291
     21 H21_       -3.0220    0.3460   -0.7870 H       1  BEN1        0.0291
     22 N22_       -4.1960    2.4740   -2.2390 N.am    1  BEN1       -0.3040
     23 H23_       -2.4180    2.6600   -1.1220 H       1  BEN1        0.0595
     24  C1        -7.4810    4.2890    2.7920 C.ar    2  BEN2       -0.0537
     25  C2        -7.3190    3.2630    3.7270 C.ar    2  BEN2       -0.0170
     26  C3        -6.0380    2.9030    4.1530 C.ar    2  BEN2       -0.0537
     27  C4        -4.9170    3.5070    3.5790 C.ar    2  BEN2       -0.0565
     28  C5        -5.0720    4.4630    2.5700 C.ar    2  BEN2       -0.0297
     29  C6        -6.3580    4.8830    2.2090 C.ar    2  BEN2       -0.0565
     30 H30_       -4.0690    5.9020    1.2500 H       1  BEN1        0.0518
     31 H31_       -3.1230    5.3430    2.6460 H       1  BEN1        0.0518
     32 H32_       -5.1110    2.8820   -2.2590 H       1  BEN1        0.1494
     33 H33_       -8.4760    4.6180    2.5090 H       2  BEN2        0.0624
     34 H34_       -5.9120    2.1510    4.9260 H       2  BEN2        0.0624
     35 H35_       -3.9240    3.2240    3.9130 H       2  BEN2        0.0621
     36  C1        -9.4700    3.2520    4.9710 C.ar    3  BEN3       -0.0532
     37  C2        -8.4990    2.5410    4.2590 C.ar    3  BEN3       -0.0026
     38  C3        -8.6350    1.1610    4.0650 C.ar    3  BEN3        0.0787
     39  C4        -9.6980    0.4880    4.6780 C.ar    3  BEN3       -0.0459
     40  C5       -10.6560    1.1920    5.4130 C.ar    3  BEN3       -0.0609
     41  C6       -10.5520    2.5790    5.5450 C.ar    3  BEN3       -0.0611
     42 H42_       -6.4930    5.6670    1.4710 H       2  BEN2        0.0621
     43 H43_       -9.3830    4.3280    5.0850 H       3  BEN3        0.0624
     44 H44_       -9.7860   -0.5900    4.5810 H       3  BEN3        0.0626
     45 H45_      -11.4810    0.6620    5.8800 H       3  BEN3        0.0618
     46  N1        -7.0830    0.8190    2.1430 N.ar    4  TET4       -0.0576
     47  N2        -6.3120   -0.1850    1.6800 N.ar    4  TET4        0.1370
     48  N3        -6.4720   -1.2200    2.5220 N.ar    4  TET4        0.0227
     49  N4        -7.3840   -0.8330    3.5380 N.ar    4  TET4       -0.0564
     50  C1        -7.6640    0.3650    3.2160 C.ar    4  TET4        0.3568
     51 H51_      -11.3090    3.1320    6.0940 H       3  BEN3        0.0618
     52 H52_       -7.2030    1.7400    1.7040 H       4  TET4        0.4932
     53 C53_       -3.6220    1.9350   -3.3340 C.2     1  BEN1        0.2137
     54 O54_       -2.5260    1.4010   -3.2860 O.2     1  BEN1       -0.2758
     55 C55_       -4.3580    1.9870   -4.6500 C.3     1  BEN1        0.0256
     56 C56_       -4.6890    3.4320   -5.1230 C.3     1  BEN1       -0.0271
     57 H57_       -5.2930    1.4170   -4.5310 H       1  BEN1        0.0359
     58 H58_       -3.7610    1.4700   -5.4170 H       1  BEN1        0.0359
     59 H59_       -5.4650    3.8560   -4.4660 H       1  BEN1        0.0287
     60 C60_       -3.4730    4.4110   -5.1430 C.3     1  BEN1        0.0113
     61 H61_       -5.1210    3.3680   -6.1350 H       1  BEN1        0.0287
     62 C62_       -3.9360    5.7920   -5.6940 C.3     1  BEN1       -0.0472
     63 C63_       -2.3320    3.8580   -6.0440 C.3     1  BEN1       -0.0472
     64 N64_       -2.9510    4.5810   -3.7680 N.3     1  BEN1       -0.3251
     65 H65_       -4.2950    5.6960   -6.7300 H       1  BEN1        0.0247
     66 H66_       -3.1040    6.5130   -5.6820 H       1  BEN1        0.0247
     67 H67_       -4.7520    6.2020   -5.0800 H       1  BEN1        0.0247
     68 H68_       -2.7150    3.5980   -7.0430 H       1  BEN1        0.0247
     69 H69_       -1.8800    2.9640   -5.5910 H       1  BEN1        0.0247
     70 H70_       -1.5350    4.6070   -6.1640 H       1  BEN1        0.0247
     71 H71_       -3.6930    5.0240   -3.1170 H       1  BEN1        0.1187
     72 H72_       -2.0580    5.1910   -3.7590 H       1  BEN1        0.1187
@<TRIPOS>BOND
     1     1     2   ar
     2     1     6   ar
     3     1     7    1
     4     2     8    1
     5     2     3   ar
     6     3     4   ar
     7     3     9    1
     8     4     5   ar
     9     4    10    1
    10     5     6   ar
    11     5    11    1
    12     6    12    1
    13    11    15   am
    14    11    17    1
    15    12    13    1
    16    12    18    1
    17    12    19    1
    18    13    14    1
    19    13    20    1
    20    13    21    1
    21    14    15    1
    22    14    22    1
    23    14    23    1
    24    15    16    2
    25    17    30    1
    26    17    31    1
    27    17    28    1
    28    22    32    1
    29    22    53   am
    30    24    25   ar
    31    24    29   ar
    32    24    33    1
    33    25    26   ar
    34    25    37    1
    35    26    27   ar
    36    26    34    1
    37    27    28   ar
    38    27    35    1
    39    28    29   ar
    40    29    42    1
    41    36    37   ar
    42    36    41   ar
    43    36    43    1
    44    37    38   ar
    45    38    39   ar
    46    38    50    1
    47    39    40   ar
    48    39    44    1
    49    40    41   ar
    50    40    45    1
    51    41    51    1
    52    46    47   ar
    53    46    50   ar
    54    46    52    1
    55    47    48   ar
    56    48    49   ar
    57    49    50   ar
    58    53    54    2
    59    53    55    1
    60    55    56    1
    61    55    57    1
    62    55    58    1
    63    56    59    1
    64    56    60    1
    65    56    61    1
    66    60    62    1
    67    60    63    1
    68    60    64    1
    69    62    65    1
    70    62    66    1
    71    62    67    1
    72    63    68    1
    73    63    69    1
    74    63    70    1
    75    64    71    1
    76    64    72    1
