@<TRIPOS>MOLECULE
GHSM.13.pdb
 81 85 0 0 0
SMALL
GASTEIGER

@<TRIPOS>ATOM
      1  C1        -0.9810    1.1730    1.8800 C.ar    1  BEN1       -0.0568
      2  C2         0.1950    1.8770    2.1540 C.ar    1  BEN1       -0.0614
      3  C3         0.2110    3.2710    2.0700 C.ar    1  BEN1       -0.0600
      4  C4        -0.9450    3.9600    1.6920 C.ar    1  BEN1       -0.0400
      5  C5        -2.1240    3.2590    1.4240 C.ar    1  BEN1        0.0398
      6  C6        -2.1490    1.8630    1.5340 C.ar    1  BEN1       -0.0259
      7 H7__       -0.9810    0.0890    1.9370 H       1  BEN1        0.0621
      8 H8__        1.0970    1.3400    2.4330 H       1  BEN1        0.0618
      9 H9__        1.1220    3.8190    2.2940 H       1  BEN1        0.0618
     10 H10_       -0.9180    5.0400    1.5970 H       1  BEN1        0.0636
     11 N11_       -3.2990    3.9570    1.0280 N.am    1  BEN1       -0.2653
     12 C12_       -3.4630    1.1140    1.2800 C.3     1  BEN1       -0.0238
     13 C13_       -3.7950    1.0940   -0.2350 C.3     1  BEN1       -0.0219
     14 C14_       -3.5070    2.4480   -0.9390 C.3     1  BEN1        0.1002
     15 C15_       -4.0010    3.5840   -0.0690 C.2     1  BEN1        0.2404
     16 O16_       -5.0370    4.1410   -0.3970 O.2     1  BEN1       -0.2732
     17 C17_       -3.8250    5.0340    1.8670 C.3     1  BEN1        0.0449
     18 H18_       -4.2650    1.6330    1.8240 H       1  BEN1        0.0314
     19 H19_       -3.4250    0.0840    1.6710 H       1  BEN1        0.0314
     20 H20_       -4.8590    0.8350   -0.3660 H       1  BEN1        0.0291
     21 H21_       -3.1950    0.3130   -0.7310 H       1  BEN1        0.0291
     22 N22_       -4.2120    2.4500   -2.2200 N.am    1  BEN1       -0.3039
     23 H23_       -2.4260    2.5950   -1.1010 H       1  BEN1        0.0595
     24  C1        -7.4780    4.2950    2.7920 C.ar    2  BEN2       -0.0537
     25  C2        -7.3140    3.2640    3.7220 C.ar    2  BEN2       -0.0170
     26  C3        -6.0300    2.9050    4.1420 C.ar    2  BEN2       -0.0537
     27  C4        -4.9130    3.5200    3.5730 C.ar    2  BEN2       -0.0565
     28  C5        -5.0710    4.4800    2.5680 C.ar    2  BEN2       -0.0297
     29  C6        -6.3580    4.8980    2.2120 C.ar    2  BEN2       -0.0565
     30 H30_       -4.0630    5.9160    1.2530 H       1  BEN1        0.0518
     31 H31_       -3.1140    5.3530    2.6450 H       1  BEN1        0.0518
     32 H32_       -5.0210    3.0320   -2.3000 H       1  BEN1        0.1494
     33 H33_       -8.4750    4.6220    2.5120 H       2  BEN2        0.0624
     34 H34_       -5.9000    2.1450    4.9060 H       2  BEN2        0.0624
     35 H35_       -3.9180    3.2420    3.9100 H       2  BEN2        0.0621
     36  C1        -9.4550    3.2420    4.9820 C.ar    3  BEN3       -0.0532
     37  C2        -8.4880    2.5370    4.2580 C.ar    3  BEN3       -0.0026
     38  C3        -8.6230    1.1560    4.0610 C.ar    3  BEN3        0.0787
     39  C4        -9.6760    0.4780    4.6840 C.ar    3  BEN3       -0.0459
     40  C5       -10.6270    1.1760    5.4340 C.ar    3  BEN3       -0.0609
     41  C6       -10.5270    2.5630    5.5690 C.ar    3  BEN3       -0.0611
     42 H42_       -6.4960    5.6860    1.4790 H       2  BEN2        0.0621
     43 H43_       -9.3700    4.3180    5.0970 H       3  BEN3        0.0624
     44 H44_       -9.7640   -0.6000    4.5830 H       3  BEN3        0.0626
     45 H45_      -11.4440    0.6420    5.9100 H       3  BEN3        0.0618
     46  N1        -7.0910    0.8240    2.1210 N.ar    4  TET4       -0.0576
     47  N2        -6.3270   -0.1790    1.6450 N.ar    4  TET4        0.1370
     48  N3        -6.4780   -1.2180    2.4840 N.ar    4  TET4        0.0227
     49  N4        -7.3780   -0.8350    3.5110 N.ar    4  TET4       -0.0564
     50  C1        -7.6610    0.3640    3.1980 C.ar    4  TET4        0.3568
     51 H51_      -11.2770    3.1120    6.1300 H       3  BEN3        0.0618
     52 H52_       -7.2160    1.7470    1.6880 H       4  TET4        0.4932
     53 C53_       -3.6990    1.7810   -3.2720 C.2     1  BEN1        0.2154
     54 O54_       -2.6540    1.1600   -3.1690 O.2     1  BEN1       -0.2757
     55 C55_       -4.4160    1.7640   -4.6010 C.3     1  BEN1        0.0417
     56 C56_       -5.8650    1.1800   -4.6160 C.3     1  BEN1        0.0218
     57 H57_       -3.7990    1.1910   -5.3110 H       1  BEN1        0.0376
     58 H58_       -4.4400    2.8030   -4.9600 H       1  BEN1        0.0376
     59 C59_       -5.8160   -0.2820   -4.0820 C.3     1  BEN1       -0.0466
     60 N60_       -6.8340    1.9270   -3.7760 N.3     1  BEN1       -0.3104
     61 C61_       -6.3930    1.1500   -6.0800 C.3     1  BEN1       -0.0466
     62 H62_       -6.7640    1.7160   -2.7170 H       1  BEN1        0.1225
     63  C63       -7.3330    3.2830   -4.1050 C.3     1  BEN1       -0.0013
     64 H64_       -5.1630   -0.9110   -4.7050 H       1  BEN1        0.0247
     65 H65_       -6.8280   -0.7160   -4.0860 H       1  BEN1        0.0247
     66 H66_       -5.4340   -0.3100   -3.0500 H       1  BEN1        0.0247
     67 H67_       -6.3440    2.1490   -6.5370 H       1  BEN1        0.0247
     68 H68_       -7.4390    0.8080   -6.0930 H       1  BEN1        0.0247
     69 H69_       -5.7960    0.4660   -6.7020 H       1  BEN1        0.0247
     70  H70       -7.8980    3.2470   -5.0480 H       1  BEN1        0.0427
     71  H71       -6.4750    3.9590   -4.2420 H       1  BEN1        0.0427
     72  C72       -8.2640    3.8630   -3.0020 C.3     1  BEN1       -0.0341
     73  C73       -8.6820    5.3170   -3.3590 C.3     1  BEN1       -0.0615
     74  H74       -7.7090    3.8940   -2.0480 H       1  BEN1        0.0308
     75  C75       -9.5250    2.9730   -2.8210 C.3     1  BEN1       -0.0615
     76  H76       -7.7940    5.9610   -3.4570 H       1  BEN1        0.0233
     77  H77       -9.3260    5.7370   -2.5700 H       1  BEN1        0.0233
     78  H78       -9.2360    5.3380   -4.3100 H       1  BEN1        0.0233
     79  H79      -10.1040    2.9330   -3.7560 H       1  BEN1        0.0233
     80  H80      -10.1700    3.3820   -2.0270 H       1  BEN1        0.0233
     81  H81       -9.2440    1.9470   -2.5410 H       1  BEN1        0.0233
@<TRIPOS>BOND
     1     1     2   ar
     2     1     6   ar
     3     1     7    1
     4     2     8    1
     5     2     3   ar
     6     3     4   ar
     7     3     9    1
     8     4     5   ar
     9     4    10    1
    10     5     6   ar
    11     5    11    1
    12     6    12    1
    13    11    15   am
    14    11    17    1
    15    12    13    1
    16    12    18    1
    17    12    19    1
    18    13    14    1
    19    13    20    1
    20    13    21    1
    21    14    15    1
    22    14    22    1
    23    14    23    1
    24    15    16    2
    25    17    30    1
    26    17    31    1
    27    17    28    1
    28    22    32    1
    29    22    53   am
    30    24    25   ar
    31    24    29   ar
    32    24    33    1
    33    25    26   ar
    34    25    37    1
    35    26    27   ar
    36    26    34    1
    37    27    28   ar
    38    27    35    1
    39    28    29   ar
    40    29    42    1
    41    36    37   ar
    42    36    41   ar
    43    36    43    1
    44    37    38   ar
    45    38    39   ar
    46    38    50    1
    47    39    40   ar
    48    39    44    1
    49    40    41   ar
    50    40    45    1
    51    41    51    1
    52    46    47   ar
    53    46    50   ar
    54    46    52    1
    55    47    48   ar
    56    48    49   ar
    57    49    50   ar
    58    53    54    2
    59    53    55    1
    60    55    56    1
    61    55    57    1
    62    55    58    1
    63    56    59    1
    64    56    60    1
    65    56    61    1
    66    59    64    1
    67    59    65    1
    68    59    66    1
    69    60    62    1
    70    60    63    1
    71    61    67    1
    72    61    68    1
    73    61    69    1
    74    63    70    1
    75    63    71    1
    76    63    72    1
    77    72    73    1
    78    72    74    1
    79    72    75    1
    80    73    76    1
    81    73    77    1
    82    73    78    1
    83    75    79    1
    84    75    80    1
    85    75    81    1
