@<TRIPOS>MOLECULE
GHSM.26.pdb
 84 88 0 0 0
SMALL
GASTEIGER

@<TRIPOS>ATOM
      1  C1        -1.0010    1.1570    1.9030 C.ar    1  BEN1       -0.0568
      2  C2         0.1750    1.8550    2.1910 C.ar    1  BEN1       -0.0614
      3  C3         0.2000    3.2490    2.1020 C.ar    1  BEN1       -0.0600
      4  C4        -0.9480    3.9430    1.7090 C.ar    1  BEN1       -0.0400
      5  C5        -2.1300    3.2480    1.4330 C.ar    1  BEN1        0.0398
      6  C6        -2.1610    1.8520    1.5420 C.ar    1  BEN1       -0.0259
      7  H7        -1.0070    0.0730    1.9630 H       1  BEN1        0.0621
      8  H8         1.0700    1.3140    2.4830 H       1  BEN1        0.0618
      9  H9         1.1110    3.7930    2.3340 H       1  BEN1        0.0618
     10  H10       -0.9150    5.0220    1.6110 H       1  BEN1        0.0636
     11 N11_       -3.2980    3.9540    1.0310 N.am    1  BEN1       -0.2653
     12 C12_       -3.4730    1.1050    1.2710 C.3     1  BEN1       -0.0238
     13 C13_       -3.7820    1.0850   -0.2490 C.3     1  BEN1       -0.0219
     14 C14_       -3.5080    2.4480   -0.9370 C.3     1  BEN1        0.1002
     15 C15_       -4.0000    3.5850   -0.0690 C.2     1  BEN1        0.2404
     16 O16_       -5.0310    4.1510   -0.3990 O.2     1  BEN1       -0.2732
     17 C17_       -3.8220    5.0310    1.8710 C.3     1  BEN1        0.0449
     18  H18       -4.2820    1.6250    1.8040 H       1  BEN1        0.0314
     19  H19       -3.4420    0.0750    1.6620 H       1  BEN1        0.0314
     20  H20       -4.8410    0.8140   -0.3910 H       1  BEN1        0.0291
     21  H21       -3.1660    0.3150   -0.7430 H       1  BEN1        0.0291
     22 N22_       -4.1950    2.4620   -2.2260 N.am    1  BEN1       -0.3039
     23  H23       -2.4260    2.6010   -1.0920 H       1  BEN1        0.0595
     24  C1        -7.4790    4.2920    2.7840 C.ar    2  BEN2       -0.0537
     25  C2        -7.3150    3.2640    3.7170 C.ar    2  BEN2       -0.0170
     26  C3        -6.0330    2.9040    4.1400 C.ar    2  BEN2       -0.0537
     27  C4        -4.9140    3.5150    3.5690 C.ar    2  BEN2       -0.0565
     28  C5        -5.0710    4.4780    2.5670 C.ar    2  BEN2       -0.0297
     29  C6        -6.3580    4.8970    2.2100 C.ar    2  BEN2       -0.0565
     30  H30       -4.0580    5.9150    1.2570 H       1  BEN1        0.0518
     31  H31       -3.1130    5.3480    2.6500 H       1  BEN1        0.0518
     32  H32       -5.0850    2.9130   -2.2780 H       1  BEN1        0.1494
     33  H33       -8.4750    4.6150    2.4970 H       2  BEN2        0.0624
     34  H34       -5.9040    2.1470    4.9070 H       2  BEN2        0.0624
     35  H35       -3.9200    3.2330    3.9040 H       2  BEN2        0.0621
     36  C1        -9.4540    3.2420    4.9830 C.ar    3  BEN3       -0.0532
     37  C2        -8.4880    2.5370    4.2590 C.ar    3  BEN3       -0.0026
     38  C3        -8.6190    1.1550    4.0670 C.ar    3  BEN3        0.0787
     39  C4        -9.6640    0.4750    4.7010 C.ar    3  BEN3       -0.0459
     40  C5       -10.6130    1.1730    5.4530 C.ar    3  BEN3       -0.0609
     41  C6       -10.5190    2.5610    5.5790 C.ar    3  BEN3       -0.0611
     42  H42       -6.4940    5.6880    1.4790 H       2  BEN2        0.0621
     43  H43       -9.3750    4.3190    5.0890 H       3  BEN3        0.0624
     44  H44       -9.7460   -0.6040    4.6060 H       3  BEN3        0.0626
     45  H45      -11.4230    0.6370    5.9390 H       3  BEN3        0.0618
     46  N1        -7.1020    0.8250    2.1150 N.ar    4  TET4       -0.0576
     47  N2        -6.3350   -0.1740    1.6370 N.ar    4  TET4        0.1370
     48  N3        -6.4730   -1.2120    2.4800 N.ar    4  TET4        0.0227
     49  N4        -7.3670   -0.8310    3.5130 N.ar    4  TET4       -0.0564
     50  C1        -7.6610    0.3660    3.1980 C.ar    4  TET4        0.3568
     51  H51      -11.2700    3.1090    6.1410 H       3  BEN3        0.0618
     52  H52       -7.2360    1.7460    1.6790 H       4  TET4        0.4932
     53 C53_       -3.6660    1.8170   -3.2840 C.2     1  BEN1        0.2154
     54 O54_       -2.6050    1.2220   -3.2020 O.2     1  BEN1       -0.2757
     55 C55_       -4.3960    1.8360   -4.6040 C.3     1  BEN1        0.0417
     56 C56_       -5.8230    1.2210   -4.4860 C.3     1  BEN1        0.0219
     57  H57       -3.8110    1.2530   -5.3330 H       1  BEN1        0.0376
     58  H58       -4.4270    2.8710   -4.9700 H       1  BEN1        0.0376
     59 C59_       -5.6950   -0.2270   -3.9240 C.3     1  BEN1       -0.0466
     60 N60_       -6.6610    2.0140   -3.5420 N.3     1  BEN1       -0.3081
     61 C61_       -6.4790    1.1540   -5.8950 C.3     1  BEN1       -0.0466
     62  H62       -6.6710   -0.7370   -3.9310 H       1  BEN1        0.0247
     63  C63       -7.1260    3.3750   -3.9150 C.3     1  BEN1        0.0249
     64  H64       -5.3310   -0.2070   -2.8850 H       1  BEN1        0.0247
     65  H65       -4.9940   -0.8260   -4.5260 H       1  BEN1        0.0247
     66  H66       -7.5100    1.4330   -3.1990 H       1  BEN1        0.1225
     67  H67       -6.4570    2.1350   -6.3920 H       1  BEN1        0.0247
     68  H68       -7.5260    0.8250   -5.8090 H       1  BEN1        0.0247
     69  H69       -5.9420    0.4410   -6.5380 H       1  BEN1        0.0247
     70  H70       -7.7810    3.3320   -4.7990 H       1  BEN1        0.0450
     71  H71       -6.2790    4.0360   -4.1470 H       1  BEN1        0.0450
     72  C72       -7.9410    3.9970   -2.7460 C.3     1  BEN1        0.0956
     73  C73       -8.3970    5.4450   -3.0830 C.3     1  BEN1        0.1052
     74  O74       -9.0770    3.1640   -2.4470 O.3     1  BEN1       -0.3879
     75  H75       -7.3070    4.0140   -1.8450 H       1  BEN1        0.0633
     76  H76       -7.5040    6.0590   -3.3000 H       1  BEN1        0.0642
     77  C77       -9.1560    6.0720   -1.8800 C.3     1  BEN1        0.0726
     78  O78       -9.2460    5.3890   -4.2470 O.3     1  BEN1       -0.3869
     79  H79       -9.6940    3.1390   -3.1720 H       1  BEN1        0.2099
     80  H80       -9.5410    6.2450   -4.5440 H       1  BEN1        0.2100
     81  H81      -10.0430    5.4600   -1.6570 H       1  BEN1        0.0584
     82  H82       -9.5010    7.0870   -2.1400 H       1  BEN1        0.0584
     83  O83       -8.3400    6.1220   -0.6940 O.3     1  BEN1       -0.3924
     84  H84       -7.5570    6.6540   -0.7990 H       1  BEN1        0.2095
@<TRIPOS>BOND
     1     1     2   ar
     2     1     6   ar
     3     1     7    1
     4     2     8    1
     5     2     3   ar
     6     3     4   ar
     7     3     9    1
     8     4     5   ar
     9     4    10    1
    10     5     6   ar
    11     5    11    1
    12     6    12    1
    13    11    15   am
    14    11    17    1
    15    12    13    1
    16    12    18    1
    17    12    19    1
    18    13    14    1
    19    13    20    1
    20    13    21    1
    21    14    15    1
    22    14    22    1
    23    14    23    1
    24    15    16    2
    25    17    30    1
    26    17    31    1
    27    17    28    1
    28    22    32    1
    29    22    53   am
    30    24    25   ar
    31    24    29   ar
    32    24    33    1
    33    25    26   ar
    34    25    37    1
    35    26    27   ar
    36    26    34    1
    37    27    28   ar
    38    27    35    1
    39    28    29   ar
    40    29    42    1
    41    36    37   ar
    42    36    41   ar
    43    36    43    1
    44    37    38   ar
    45    38    39   ar
    46    38    50    1
    47    39    40   ar
    48    39    44    1
    49    40    41   ar
    50    40    45    1
    51    41    51    1
    52    46    47   ar
    53    46    50   ar
    54    46    52    1
    55    47    48   ar
    56    48    49   ar
    57    49    50   ar
    58    53    54    2
    59    53    55    1
    60    55    56    1
    61    55    57    1
    62    55    58    1
    63    56    59    1
    64    56    60    1
    65    56    61    1
    66    59    62    1
    67    59    64    1
    68    59    65    1
    69    60    63    1
    70    60    66    1
    71    61    67    1
    72    61    68    1
    73    61    69    1
    74    63    70    1
    75    63    71    1
    76    63    72    1
    77    72    73    1
    78    72    74    1
    79    72    75    1
    80    73    76    1
    81    73    77    1
    82    73    78    1
    83    74    79    1
    84    77    81    1
    85    77    82    1
    86    77    83    1
    87    78    80    1
    88    83    84    1
