@<TRIPOS>MOLECULE
GHSM.25.pdb
 80 84 0 0 0
SMALL
GASTEIGER

@<TRIPOS>ATOM
      1  C1        -0.9900    1.1680    1.8930 C.ar    1  BEN1       -0.0568
      2  C2         0.1840    1.8700    2.1790 C.ar    1  BEN1       -0.0614
      3  C3         0.2030    3.2650    2.0900 C.ar    1  BEN1       -0.0600
      4  C4        -0.9480    3.9540    1.7000 C.ar    1  BEN1       -0.0400
      5  C5        -2.1280    3.2540    1.4250 C.ar    1  BEN1        0.0398
      6  C6        -2.1530    1.8570    1.5360 C.ar    1  BEN1       -0.0259
      7  H7        -0.9910    0.0840    1.9520 H       1  BEN1        0.0621
      8  H8         1.0820    1.3330    2.4700 H       1  BEN1        0.0618
      9  H9         1.1120    3.8120    2.3220 H       1  BEN1        0.0618
     10  H10       -0.9190    5.0330    1.6010 H       1  BEN1        0.0636
     11 N11_       -3.2990    3.9550    1.0260 N.am    1  BEN1       -0.2653
     12 C12_       -3.4650    1.1080    1.2680 C.3     1  BEN1       -0.0238
     13 C13_       -3.7840    1.0890   -0.2500 C.3     1  BEN1       -0.0219
     14 C14_       -3.5020    2.4500   -0.9420 C.3     1  BEN1        0.1002
     15 C15_       -4.0010    3.5850   -0.0740 C.2     1  BEN1        0.2404
     16 O16_       -5.0350    4.1460   -0.4020 O.2     1  BEN1       -0.2732
     17 C17_       -3.8250    5.0290    1.8680 C.3     1  BEN1        0.0449
     18  H18       -4.2710    1.6250    1.8070 H       1  BEN1        0.0314
     19  H19       -3.4290    0.0770    1.6580 H       1  BEN1        0.0314
     20  H20       -4.8450    0.8250   -0.3870 H       1  BEN1        0.0291
     21  H21       -3.1750    0.3160   -0.7460 H       1  BEN1        0.0291
     22 N22_       -4.1840    2.4610   -2.2350 N.am    1  BEN1       -0.3039
     23  H23       -2.4200    2.6010   -1.0930 H       1  BEN1        0.0595
     24  C1        -7.4800    4.2960    2.7950 C.ar    2  BEN2       -0.0537
     25  C2        -7.3150    3.2640    3.7240 C.ar    2  BEN2       -0.0170
     26  C3        -6.0320    2.9030    4.1420 C.ar    2  BEN2       -0.0537
     27  C4        -4.9140    3.5140    3.5700 C.ar    2  BEN2       -0.0565
     28  C5        -5.0730    4.4760    2.5670 C.ar    2  BEN2       -0.0297
     29  C6        -6.3600    4.8970    2.2130 C.ar    2  BEN2       -0.0565
     30  H30       -4.0620    5.9140    1.2550 H       1  BEN1        0.0518
     31  H31       -3.1150    5.3470    2.6470 H       1  BEN1        0.0518
     32  H32       -5.0710    2.9160   -2.2950 H       1  BEN1        0.1494
     33  H33       -8.4770    4.6240    2.5170 H       2  BEN2        0.0624
     34  H34       -5.9020    2.1430    4.9080 H       2  BEN2        0.0624
     35  H35       -3.9200    3.2320    3.9030 H       2  BEN2        0.0621
     36  C1        -9.4550    3.2420    4.9870 C.ar    3  BEN3       -0.0532
     37  C2        -8.4900    2.5370    4.2610 C.ar    3  BEN3       -0.0026
     38  C3        -8.6250    1.1570    4.0630 C.ar    3  BEN3        0.0787
     39  C4        -9.6790    0.4780    4.6840 C.ar    3  BEN3       -0.0459
     40  C5       -10.6300    1.1770    5.4340 C.ar    3  BEN3       -0.0609
     41  C6       -10.5280    2.5630    5.5710 C.ar    3  BEN3       -0.0611
     42  H42       -6.4970    5.6860    1.4800 H       2  BEN2        0.0621
     43  H43       -9.3700    4.3180    5.1050 H       3  BEN3        0.0624
     44  H44       -9.7670   -0.5990    4.5810 H       3  BEN3        0.0626
     45  H45      -11.4480    0.6420    5.9070 H       3  BEN3        0.0618
     46  N1        -7.0910    0.8250    2.1230 N.ar    4  TET4       -0.0576
     47  N2        -6.3260   -0.1770    1.6490 N.ar    4  TET4        0.1370
     48  N3        -6.4770   -1.2160    2.4880 N.ar    4  TET4        0.0227
     49  N4        -7.3790   -0.8330    3.5140 N.ar    4  TET4       -0.0564
     50  C1        -7.6620    0.3650    3.2000 C.ar    4  TET4        0.3568
     51  H51      -11.2790    3.1110    6.1330 H       3  BEN3        0.0618
     52  H52       -7.2160    1.7480    1.6890 H       4  TET4        0.4932
     53 C53_       -3.6510    1.8100   -3.2870 C.2     1  BEN1        0.2154
     54 O54_       -2.5930    1.2120   -3.1960 O.2     1  BEN1       -0.2757
     55 C55_       -4.3720    1.8240   -4.6130 C.3     1  BEN1        0.0417
     56 C56_       -5.8010    1.2130   -4.5030 C.3     1  BEN1        0.0219
     57  H57       -3.7840    1.2340   -5.3330 H       1  BEN1        0.0376
     58  H58       -4.3940    2.8560   -4.9860 H       1  BEN1        0.0376
     59 C59_       -5.6830   -0.2330   -3.9330 C.3     1  BEN1       -0.0466
     60 N60_       -6.6440    2.0140   -3.5700 N.3     1  BEN1       -0.3081
     61 C61_       -6.4480    1.1410   -5.9160 C.3     1  BEN1       -0.0466
     62  H62       -6.6620   -0.7370   -3.9400 H       1  BEN1        0.0247
     63  C63       -7.0970    3.3750   -3.9580 C.3     1  BEN1        0.0246
     64  H64       -5.3220   -0.2090   -2.8930 H       1  BEN1        0.0247
     65  H65       -4.9840   -0.8380   -4.5300 H       1  BEN1        0.0247
     66  H66       -7.4970    1.4390   -3.2290 H       1  BEN1        0.1225
     67  H67       -6.4200    2.1200   -6.4170 H       1  BEN1        0.0247
     68  H68       -7.4960    0.8150   -5.8360 H       1  BEN1        0.0247
     69  H69       -5.9090    0.4240   -6.5530 H       1  BEN1        0.0247
     70  H70       -7.7570    3.3290   -4.8380 H       1  BEN1        0.0450
     71  H71       -6.2460    4.0270   -4.2000 H       1  BEN1        0.0450
     72  C72       -7.9020    4.0210   -2.7950 C.3     1  BEN1        0.0906
     73  C73       -8.3320    5.4740   -3.1390 C.3     1  BEN1        0.0713
     74  O74       -9.0470    3.2150   -2.4590 O.3     1  BEN1       -0.3883
     75  H75       -7.2660    4.0510   -1.8960 H       1  BEN1        0.0629
     76  H76       -8.9180    5.8940   -2.3050 H       1  BEN1        0.0583
     77  H77       -8.9740    5.4630   -4.0340 H       1  BEN1        0.0583
     78  O78       -7.1980    6.3120   -3.4300 O.3     1  BEN1       -0.3924
     79  H79       -9.6660    3.1250   -3.1770 H       1  BEN1        0.2099
     80  H80       -6.6000    6.4000   -2.6930 H       1  BEN1        0.2095
@<TRIPOS>BOND
     1     1     2   ar
     2     1     6   ar
     3     1     7    1
     4     2     8    1
     5     2     3   ar
     6     3     4   ar
     7     3     9    1
     8     4     5   ar
     9     4    10    1
    10     5     6   ar
    11     5    11    1
    12     6    12    1
    13    11    15   am
    14    11    17    1
    15    12    13    1
    16    12    18    1
    17    12    19    1
    18    13    14    1
    19    13    20    1
    20    13    21    1
    21    14    15    1
    22    14    22    1
    23    14    23    1
    24    15    16    2
    25    17    30    1
    26    17    31    1
    27    17    28    1
    28    22    32    1
    29    22    53   am
    30    24    25   ar
    31    24    29   ar
    32    24    33    1
    33    25    26   ar
    34    25    37    1
    35    26    27   ar
    36    26    34    1
    37    27    28   ar
    38    27    35    1
    39    28    29   ar
    40    29    42    1
    41    36    37   ar
    42    36    41   ar
    43    36    43    1
    44    37    38   ar
    45    38    39   ar
    46    38    50    1
    47    39    40   ar
    48    39    44    1
    49    40    41   ar
    50    40    45    1
    51    41    51    1
    52    46    47   ar
    53    46    50   ar
    54    46    52    1
    55    47    48   ar
    56    48    49   ar
    57    49    50   ar
    58    53    54    2
    59    53    55    1
    60    55    56    1
    61    55    57    1
    62    55    58    1
    63    56    59    1
    64    56    60    1
    65    56    61    1
    66    59    62    1
    67    59    64    1
    68    59    65    1
    69    60    63    1
    70    60    66    1
    71    61    67    1
    72    61    68    1
    73    61    69    1
    74    63    70    1
    75    63    71    1
    76    63    72    1
    77    72    73    1
    78    72    74    1
    79    72    75    1
    80    73    76    1
    81    73    77    1
    82    73    78    1
    83    74    79    1
    84    78    80    1
