@<TRIPOS>MOLECULE
04
 27 27 0 0 0
SMALL
USER_CHARGES

@<TRIPOS>ATOM
      1 C1          1.4290    1.3310    0.7890 C.3     1  MAIN1       0.2875
      2 C2          1.4840    1.6210   -0.7290 C.3     1  MAIN1      -0.0018
      3 C3          0.3250    0.9380   -1.4880 C.3     1  MAIN1       0.1442
      4 C4          0.1550   -0.5170   -1.0310 C.3     1  MAIN1       0.3484
      5 C5          0.0280   -0.5320    0.4940 C.3     1  MAIN1       0.0093
      6 C6         -0.3680   -1.9220    1.0080 C.3     1  MAIN1       0.1027
      7 O1          2.6070    1.8270    1.4270 O.3     1  MAIN1      -0.4004
      8 O2          1.4760    3.0340   -0.9580 O.3     1  MAIN1      -0.6283
      9 O3          0.5150    1.0270   -2.9010 O.3     1  MAIN1      -0.6994
     10 O4         -0.9790   -1.1360   -1.6280 O.3     1  MAIN1      -0.6910
     11 O5          1.2500   -0.0680    1.0650 O.3     1  MAIN1      -0.3711
     12 O6          0.4180   -2.9300    0.3800 O.3     1  MAIN1      -0.6560
     13 C7          2.4440    1.8600    2.8460 C.3     1  MAIN1      -0.0302
     14 H1          0.5633    1.8679    1.2040 H       1  MAIN1       0.0999
     15 H2          2.4287    1.2143   -1.1189 H       1  MAIN1       0.1302
     16 H3         -0.6021    1.4762   -1.2414 H       1  MAIN1       0.0747
     17 H4          1.0512   -1.0846   -1.3218 H       1  MAIN1       0.0915
     18 H5         -0.7702    0.1684    0.7808 H       1  MAIN1       0.0816
     19 H6         -1.4303   -2.1008    0.7856 H       1  MAIN1       0.0821
     20 H7         -0.2088   -1.9644    2.0956 H       1  MAIN1       0.0532
     21 H8          2.1946    3.4357   -0.4839 H       1  MAIN1       0.4158
     22 H9          0.6166    1.9381   -3.1501 H       1  MAIN1       0.4592
     23 H10        -0.8874   -1.1199   -2.5734 H       1  MAIN1       0.4353
     24 H11         0.1604   -3.7832    0.7090 H       1  MAIN1       0.4276
     25 H12         3.3632    2.2449    3.3118 H       1  MAIN1       0.1068
     26 H13         2.2434    0.8436    3.2158 H       1  MAIN1       0.0794
     27 H14         1.6000    2.5169    3.1030 H       1  MAIN1       0.0486
@<TRIPOS>BOND
     1     1    11    1
     2     1     7    1
     3     1     2    1
     4     2     8    1
     5     2     3    1
     6     3     9    1
     7     3     4    1
     8     4    10    1
     9     4     5    1
    10    11     5    1
    11     5     6    1
    12     6    12    1
    13     7    13    1
    14     1    14    1
    15     2    15    1
    16     3    16    1
    17     4    17    1
    18     5    18    1
    19     6    19    1
    20     6    20    1
    21     8    21    1
    22     9    22    1
    23    10    23    1
    24    12    24    1
    25    13    25    1
    26    13    26    1
    27    13    27    1
