@<TRIPOS>MOLECULE
05
 31 31 0 0 0
SMALL
USER_CHARGES

@<TRIPOS>ATOM
      1 C1          1.2890    1.4030    0.9320 C.3     1  MAIN1       0.3102
      2 C2          1.4560    1.6700   -0.5870 C.3     1  MAIN1       0.1600
      3 C3          0.3540    0.9660   -1.4130 C.3     1  MAIN1       0.0786
      4 C4          0.1810   -0.4880   -0.9620 C.3     1  MAIN1       0.3894
      5 C5         -0.0470   -0.5060    0.5540 C.3     1  MAIN1      -0.0254
      6 C6         -0.4250   -1.9110    1.0430 C.3     1  MAIN1       0.1086
      7 O2          1.4480    3.0760   -0.8530 O.3     1  MAIN1      -0.6676
      8 O3          0.6120    1.0560   -2.8170 O.3     1  MAIN1      -0.6972
      9 O4         -0.8990   -1.1270   -1.6370 O.3     1  MAIN1      -0.6968
     10 O5          1.1130    0.0050    1.2150 O.3     1  MAIN1      -0.3921
     11 O6          0.3880   -2.8970    0.4130 O.3     1  MAIN1      -0.6475
     12 O7          2.3950    1.9280    1.6760 O.3     1  MAIN1      -0.5351
     13 C7          2.0030    2.2920    3.0080 C.3     1  MAIN1       0.2115
     14 C8          3.2080    2.8140    3.8100 C.3     1  MAIN1       0.2942
     15 O8          2.7950    3.5490    4.9650 O.3     1  MAIN1      -0.7027
     16 H1          0.3809    1.9281    1.2629 H       1  MAIN1       0.0703
     17 H2          2.4296    1.2643   -0.8993 H       1  MAIN1       0.0935
     18 H3         -0.5936    1.4894   -1.2178 H       1  MAIN1       0.0857
     19 H4          1.1050   -1.0395   -1.1902 H       1  MAIN1       0.0794
     20 H5         -0.8896    0.1633    0.7821 H       1  MAIN1       0.0924
     21 H6         -1.4806   -2.1056    0.8027 H       1  MAIN1       0.0801
     22 H7         -0.2808   -1.9657    2.1321 H       1  MAIN1       0.0578
     23 H8          2.1277    3.4989   -0.3415 H       1  MAIN1       0.4268
     24 H9          0.7138    1.9681   -3.0624 H       1  MAIN1       0.4565
     25 H10        -0.7428   -1.1075   -2.5739 H       1  MAIN1       0.4383
     26 H11         0.1408   -3.7589    0.7268 H       1  MAIN1       0.4228
     27 H12         1.5876    1.4089    3.5155 H       1  MAIN1       0.0595
     28 H13         1.2366    3.0793    2.9557 H       1  MAIN1       0.0364
     29 H14         3.8082    3.4720    3.1644 H       1  MAIN1      -0.0091
     30 H15         3.8200    1.9585    4.1317 H       1  MAIN1       0.0009
     31 H16         3.5610    3.8558    5.4357 H       1  MAIN1       0.4208
@<TRIPOS>BOND
     1     2     1    1
     2     1    10    1
     3     2     3    1
     4     2     7    1
     5     3     4    1
     6     3     8    1
     7     4     5    1
     8     4     9    1
     9     5     6    1
    10    10     5    1
    11     6    11    1
    12     1    12    1
    13    12    13    1
    14    13    14    1
    15    14    15    1
    16     1    16    1
    17     2    17    1
    18     3    18    1
    19     4    19    1
    20     5    20    1
    21     6    21    1
    22     6    22    1
    23     7    23    1
    24     8    24    1
    25     9    25    1
    26    11    26    1
    27    13    27    1
    28    13    28    1
    29    14    29    1
    30    14    30    1
    31    15    31    1
