@<TRIPOS>MOLECULE
07
 28 28 0 0 0
SMALL
USER_CHARGES

@<TRIPOS>ATOM
      1 C1          1.1090    1.1490    0.9340 C.3     1  MAIN1      -0.0788
      2 C2          1.2510    1.3900   -0.5760 C.3     1  MAIN1       0.1248
      3 C3          0.1180    0.7220   -1.3520 C.3     1  MAIN1       0.0587
      4 C4         -0.0380   -0.7220   -0.8960 C.3     1  MAIN1       0.3594
      5 C5         -0.2240   -0.7490    0.6110 C.3     1  MAIN1       0.0245
      6 C6         -0.5090   -2.1620    1.0890 C.3     1  MAIN1       0.1034
      7 C7          2.3270    1.6460    1.6830 C.3     1  MAIN1       0.1899
      8 O2          1.2910    2.7840   -0.8610 O.3     1  MAIN1      -0.6469
      9 O3          0.3230    0.8180   -2.7530 O.3     1  MAIN1      -0.6830
     10 O4         -1.1190   -1.3620   -1.5260 O.3     1  MAIN1      -0.6907
     11 O5          0.9210   -0.2240    1.2420 O.3     1  MAIN1      -0.3307
     12 O6          0.3700   -3.0800    0.4720 O.3     1  MAIN1      -0.6599
     13 ****        1.9720    2.1410    2.9760 N.2     1  MAIN1      -0.6262
     14 N2          0.8797    2.4110    3.0808 N.2     1  MAIN1       0.5228
     15 N15        -0.1839    2.6751    3.1756 N.1     1  MAIN1      -0.1761
     16 H1          0.2287    1.7078    1.2844 H       1  MAIN1       0.1351
     17 H2          2.2010    0.9437   -0.9050 H       1  MAIN1       0.1051
     18 H3         -0.8156    1.2536   -1.1158 H       1  MAIN1       0.1032
     19 H4          0.8820   -1.2687   -1.1506 H       1  MAIN1       0.0876
     20 H5         -1.0858   -0.1161    0.8691 H       1  MAIN1       0.0782
     21 H6         -1.5459   -2.4276    0.8356 H       1  MAIN1       0.0791
     22 H7         -0.3744   -2.2092    2.1797 H       1  MAIN1       0.0552
     23 H8          2.7977    2.4554    1.1057 H       1  MAIN1       0.0375
     24 H9          3.0398    0.8164    1.7997 H       1  MAIN1       0.1218
     25 H10         1.9993    3.1869   -0.3726 H       1  MAIN1       0.4039
     26 H11         0.4155    1.7313   -2.9976 H       1  MAIN1       0.4391
     27 H12        -0.9946   -1.3405   -2.4676 H       1  MAIN1       0.4350
     28 H13         0.1791   -3.9578    0.7810 H       1  MAIN1       0.4278
@<TRIPOS>BOND
     1     1    11    1
     2     1     2    1
     3     7     1    1
     4    13    14    2
     5     2     8    1
     6     2     3    1
     7    14    15    3
     8     3     9    1
     9     3     4    1
    10     7    13    1
    11     4    10    1
    12     4     5    1
    13     5    11    1
    14     5     6    1
    15     6    12    1
    16     1    16    1
    17     2    17    1
    18     3    18    1
    19     4    19    1
    20     5    20    1
    21     6    21    1
    22     6    22    1
    23     7    23    1
    24     7    24    1
    25     8    25    1
    26     9    26    1
    27    10    27    1
    28    12    28    1
