@<TRIPOS>MOLECULE
09
 27 27 0 0 0
SMALL
USER_CHARGES

@<TRIPOS>ATOM
      1 C1          1.0930    1.0840    1.0000 C.3     1  MAIN1      -0.0958
      2 C2          1.1770    1.4950   -0.5010 C.3     1  MAIN1       0.2178
      3 C3          0.1140    0.7820   -1.3720 C.3     1  MAIN1       0.0664
      4 C4          0.0130   -0.7100   -0.9990 C.3     1  MAIN1       0.4245
      5 C5         -0.1040   -0.8470    0.5230 C.3     1  MAIN1       0.1619
      6 C6         -0.4160   -2.2810    0.9530 C.3     1  MAIN1       0.0528
      7 O1         -0.0970    3.0800    1.7320 O.3     1  MAIN1      -0.6998
      8 O2          1.1270    2.9200   -0.6730 O.3     1  MAIN1      -0.7088
      9 O3          0.3960    0.9530   -2.7690 O.3     1  MAIN1      -0.7108
     10 O4         -1.1010   -1.3330   -1.6230 O.3     1  MAIN1      -0.7283
     11 O5          1.0780   -0.3400    1.1390 O.3     1  MAIN1      -0.4538
     12 O6          0.4940   -3.1850    0.3410 O.3     1  MAIN1      -0.6521
     13 H1         -0.1350    1.6670    1.7250 C.3     1  MAIN1       0.3072
     14 H2          1.9939    1.4709    1.4987 H       1  MAIN1       0.1698
     15 H3          2.1606    1.1632   -0.8648 H       1  MAIN1       0.0992
     16 H4         -0.8608    1.2480   -1.1658 H       1  MAIN1       0.0691
     17 H5          0.9296   -1.2175   -1.3340 H       1  MAIN1       0.0555
     18 H6         -0.9463   -0.2202    0.8511 H       1  MAIN1       0.0382
     19 H7         -1.4419   -2.5366    0.6492 H       1  MAIN1       0.0770
     20 H8         -0.3269   -2.3602    2.0465 H       1  MAIN1       0.0648
     21 H9         -0.8627    3.4151    2.1835 H       1  MAIN1       0.4322
     22 H10         1.7890    3.3282   -0.1274 H       1  MAIN1       0.4650
     23 H11         0.4525    1.8799   -2.9695 H       1  MAIN1       0.4614
     24 H12        -1.0252   -1.2462   -2.5660 H       1  MAIN1       0.4441
     25 H13         0.2915   -4.0719    0.6146 H       1  MAIN1       0.4283
     26 H14        -1.0481    1.3345    1.2096 H       1  MAIN1      -0.0033
     27 H15        -0.1463    1.3025    2.7628 H       1  MAIN1       0.0175
@<TRIPOS>BOND
     1     1    11    1
     2    13     7    1
     3     1     2    1
     4     2     8    1
     5     2     3    1
     6     3     9    1
     7     3     4    1
     8     4    10    1
     9     5     4    1
    10    11     5    1
    11     5     6    1
    12     6    12    1
    13     1    13    1
    14     1    14    1
    15     2    15    1
    16     3    16    1
    17     4    17    1
    18     5    18    1
    19     6    19    1
    20     6    20    1
    21     7    21    1
    22     8    22    1
    23     9    23    1
    24    10    24    1
    25    12    25    1
    26    13    26    1
    27    13    27    1
