@<TRIPOS>MOLECULE
11
 28 28 0 0 0
SMALL
USER_CHARGES

@<TRIPOS>ATOM
      1 C1          1.2410    1.4300    0.8490 C.3     1  MAIN1       0.2521
      2 C2          1.3990    1.5880   -0.6830 C.3     1  MAIN1       0.0960
      3 C3          0.2380    0.9390   -1.4540 C.3     1  MAIN1       0.0229
      4 C4          0.0410   -0.4950   -0.9530 C.3     1  MAIN1       0.3285
      5 C5         -0.2660   -0.4540    0.5480 C.3     1  MAIN1       0.0832
      6 C6         -0.5930   -1.8630    1.0630 C.3     1  MAIN1       0.0496
      7 C7          2.6250    1.6070    1.4730 C.3     1  MAIN1       0.1125
      8 O2          1.5460    2.9700   -1.0350 O.3     1  MAIN1      -0.6541
      9 O3          0.4730    0.9890   -2.8640 O.3     1  MAIN1      -0.6806
     10 O4         -0.9960   -1.1750   -1.6470 O.3     1  MAIN1      -0.6851
     11 O5          0.8350    0.1110    1.2640 O.3     1  MAIN1      -0.3703
     12 O6          0.2990   -2.8220    0.4970 O.3     1  MAIN1      -0.6643
     13 O1          2.5580    2.3060    2.7090 O.3     1  MAIN1      -0.6745
     14 O7          0.3560    2.4430    1.3420 O.3     1  MAIN1      -0.6439
     15 H1          2.3221    1.0671   -0.9770 H       1  MAIN1       0.1532
     16 H2         -0.6807    1.5063   -1.2438 H       1  MAIN1       0.1154
     17 H3          0.9781   -1.0494   -1.1093 H       1  MAIN1       0.0897
     18 H4         -1.1468    0.1855    0.7066 H       1  MAIN1       0.1014
     19 H5         -1.6254   -2.1199    0.7835 H       1  MAIN1       0.0888
     20 H6         -0.4947   -1.8798    2.1585 H       1  MAIN1       0.0661
     21 H7          3.2604    2.1740    0.7767 H       1  MAIN1       0.0717
     22 H8          3.0669    0.6150    1.6478 H       1  MAIN1       0.0679
     23 H9          2.2683    3.3462   -0.5458 H       1  MAIN1       0.4455
     24 H10         0.5896    1.8924   -3.1337 H       1  MAIN1       0.4468
     25 H11        -0.7957   -1.1945   -2.5754 H       1  MAIN1       0.4371
     26 H12         0.0836   -3.6871    0.8252 H       1  MAIN1       0.4327
     27 H13         3.4325    2.3983    3.0684 H       1  MAIN1       0.4408
     28 H14         0.6556    3.2954    1.0485 H       1  MAIN1       0.4711
@<TRIPOS>BOND
     1     1    11    1
     2     1     7    1
     3     1     2    1
     4     2     8    1
     5     2     3    1
     6     3     9    1
     7     3     4    1
     8     4    10    1
     9     4     5    1
    10    11     5    1
    11     5     6    1
    12     6    12    1
    13     7    13    1
    14     1    14    1
    15     2    15    1
    16     3    16    1
    17     4    17    1
    18     5    18    1
    19     6    19    1
    20     6    20    1
    21     7    21    1
    22     7    22    1
    23     8    23    1
    24     9    24    1
    25    10    25    1
    26    12    26    1
    27    13    27    1
    28    14    28    1
