@<TRIPOS>MOLECULE
16
 32 32 0 0 0
SMALL
USER_CHARGES

@<TRIPOS>ATOM
      1 C1          1.5680    1.1760    0.8720 C.3     1  MAIN1       0.1489
      2 C2          1.5960    1.5450   -0.6680 C.3     1  MAIN1       0.1162
      3 C3          0.4310    0.9150   -1.4820 C.3     1  MAIN1       0.0453
      4 C4          0.2100   -0.5520   -1.0730 C.3     1  MAIN1       0.3894
      5 C5          0.0150   -0.6030    0.4400 C.3     1  MAIN1      -0.1347
      6 C6         -0.4230   -2.0080    0.8860 C.3     1  MAIN1       0.1787
      7 O2          1.5730    2.9680   -0.8680 O.3     1  MAIN1      -0.6990
      8 O3          0.6610    1.0310   -2.8840 O.3     1  MAIN1      -0.6564
      9 O4         -0.9140   -1.1060   -1.7480 O.3     1  MAIN1      -0.6846
     10 O5          1.2220   -0.2070    1.0900 O.3     1  MAIN1      -0.4132
     11 O6          0.3700   -3.0080    0.2530 O.3     1  MAIN1      -0.6532
     12 C7          2.8830    1.5390    1.6320 C.3     1  MAIN1      -0.2235
     13 C14         2.7530    1.9910    3.1240 C.3     1  MAIN1       0.1425
     14 N14         4.1310    1.9620    3.8550 N.4     1  MAIN1      -0.4408
     15 H1          0.7675    1.7822    1.3211 H       1  MAIN1       0.1138
     16 H2          2.5398    1.1560   -1.0778 H       1  MAIN1       0.1152
     17 H3         -0.4868    1.4731   -1.2449 H       1  MAIN1       0.1247
     18 H4          1.1020   -1.1375   -1.3404 H       1  MAIN1       0.0697
     19 H5         -0.7781    0.1079    0.7150 H       1  MAIN1       0.1179
     20 H6         -1.4784   -2.1598    0.6159 H       1  MAIN1       0.0578
     21 H7         -0.3077   -2.0928    1.9766 H       1  MAIN1       0.0481
     22 H8          2.2803    3.3684   -0.3761 H       1  MAIN1       0.4903
     23 H9          0.7939    1.9445   -3.1086 H       1  MAIN1       0.4359
     24 H10        -0.7720   -1.0643   -2.6864 H       1  MAIN1       0.4374
     25 H11         0.0848   -3.8673    0.5407 H       1  MAIN1       0.4330
     26 H12         3.3670    2.3584    1.0804 H       1  MAIN1       0.1484
     27 H13         3.5312    0.6505    1.6121 H       1  MAIN1       0.1137
     28 H14         2.0592    1.3134    3.6431 H       1  MAIN1       0.1404
     29 H15         2.3550    3.0161    3.1531 H       1  MAIN1       0.1149
     30 H16         4.0105    2.2581    4.8110 H       1  MAIN1       0.4422
     31 H17         4.7719    2.5847    3.3887 H       1  MAIN1       0.4493
     32 H18         4.5009    1.0245    3.8377 H       1  MAIN1       0.4537
@<TRIPOS>BOND
     1    10     1    1
     2     1     2    1
     3     1    12    1
     4     2     7    1
     5     2     3    1
     6     3     8    1
     7     3     4    1
     8     4     9    1
     9     4     5    1
    10    10     5    1
    11     5     6    1
    12     6    11    1
    13    12    13    1
    14    13    14    1
    15     1    15    1
    16     2    16    1
    17     3    17    1
    18     4    18    1
    19     5    19    1
    20     6    20    1
    21     6    21    1
    22     7    22    1
    23     8    23    1
    24     9    24    1
    25    11    25    1
    26    12    26    1
    27    12    27    1
    28    13    28    1
    29    13    29    1
    30    14    30    1
    31    14    31    1
    32    14    32    1
