@<TRIPOS>MOLECULE
20
 27 27 0 0 0
SMALL
USER_CHARGES

@<TRIPOS>ATOM
      1 C1          1.0630    1.3530    1.0020 C.3     1  MAIN1      -0.3131
      2 C2          1.2220    1.6480   -0.5230 C.3     1  MAIN1       0.3992
      3 C3          0.1820    0.9020   -1.3910 C.3     1  MAIN1       0.0129
      4 C4          0.0650   -0.5640   -0.9460 C.3     1  MAIN1       0.3919
      5 C5         -0.1680   -0.6170    0.5700 C.3     1  MAIN1       0.0996
      6 C6         -0.4730   -2.0470    1.0350 C.3     1  MAIN1       0.0727
      7 C7         -0.0590    2.1060    1.6970 C.2     1  MAIN1       0.9452
      8 O2          1.2510    3.0510   -0.8170 O.3     1  MAIN1      -0.7173
      9 O3          0.5010    1.0050   -2.7850 O.3     1  MAIN1      -0.6960
     10 O4         -0.9830   -1.2420   -1.6290 O.3     1  MAIN1      -0.7115
     11 O5          0.9570   -0.0570    1.2550 O.3     1  MAIN1      -0.3771
     12 O6          0.4070   -2.9720    0.4030 O.3     1  MAIN1      -0.6570
     13 O1         -0.2810    1.9680    2.8980 O.2     1  MAIN1      -0.6453
     14 N1         -0.8300    2.9930    0.9590 N.am    1  MAIN1      -1.2598
     15 H1          1.9965    1.6929    1.4742 H       1  MAIN1       0.1967
     16 H2          2.2067    1.2508   -0.8103 H       1  MAIN1       0.0424
     17 H3         -0.7958    1.3811   -1.2350 H       1  MAIN1       0.1149
     18 H4          1.0122   -1.0738   -1.1760 H       1  MAIN1       0.0677
     19 H5         -1.0468    0.0027    0.8015 H       1  MAIN1       0.0977
     20 H6         -1.5117   -2.2991    0.7750 H       1  MAIN1       0.0789
     21 H7         -0.3424   -2.1094    2.1254 H       1  MAIN1       0.0703
     22 H8          1.8987    3.4764   -0.2674 H       1  MAIN1       0.4218
     23 H9          0.5661    1.9211   -3.0281 H       1  MAIN1       0.4367
     24 H10        -0.8281   -1.2026   -2.5655 H       1  MAIN1       0.4459
     25 H11         0.2074   -3.8522    0.6995 H       1  MAIN1       0.4247
     26 H12        -1.5725    3.4970    1.4002 H       1  MAIN1       0.5079
     27 H13        -0.6431    3.1282   -0.0140 H       1  MAIN1       0.5499
@<TRIPOS>BOND
     1     1    11    1
     2     1     7    1
     3     1     2    1
     4     2     8    1
     5     2     3    1
     6     3     9    1
     7     3     4    1
     8     4    10    1
     9     4     5    1
    10    11     5    1
    11     5     6    1
    12     6    12    1
    13     7    13    2
    14     7    14   am
    15     1    15    1
    16     2    16    1
    17     3    17    1
    18     4    18    1
    19     5    19    1
    20     6    20    1
    21     6    21    1
    22     8    22    1
    23     9    23    1
    24    10    24    1
    25    12    25    1
    26    14    26    1
    27    14    27    1
