@<TRIPOS>MOLECULE
21
 24 24 0 0 0
SMALL
USER_CHARGES

@<TRIPOS>ATOM
      1 C1          1.3450    1.5010    0.9620 C.3     1  MAIN1      -0.2115
      2 C2          1.4440    1.6410   -0.5690 C.3     1  MAIN1       0.1937
      3 C3          0.3030    0.9450   -1.3320 C.3     1  MAIN1       0.1394
      4 C4          0.2020   -0.5470   -1.0000 C.3     1  MAIN1       0.2311
      5 C5         -0.1390   -0.7560    0.4680 C.3     1  MAIN1      -0.4354
      6 C6         -0.5170   -2.2170    0.7390 C.3     1  MAIN1       0.2973
      7 O2          1.4910    3.0230   -0.9010 O.3     1  MAIN1      -0.6541
      8 O3          0.4160    1.1500   -2.7380 O.3     1  MAIN1      -0.6654
      9 O4         -0.7620   -1.1840   -1.8190 O.3     1  MAIN1      -0.6206
     10 S5          1.2310   -0.2220    1.5150 S.3     1  MAIN1       0.0454
     11 O6          0.3830   -3.1060    0.1030 O.3     1  MAIN1      -0.6375
     12 O1          0.2940    2.3040    1.4850 O.3     1  MAIN1      -0.5632
     13 H1          2.2839    1.8983    1.3751 H       1  MAIN1       0.1972
     14 H2          2.3873    1.1740   -0.8883 H       1  MAIN1       0.0715
     15 H3         -0.6370    1.4143   -1.0063 H       1  MAIN1       0.1261
     16 H4          1.1811   -1.0084   -1.1962 H       1  MAIN1       0.1229
     17 H5         -1.0123   -0.1316    0.7077 H       1  MAIN1       0.2269
     18 H6         -1.5324   -2.4013    0.3582 H       1  MAIN1       0.0322
     19 H7         -0.4937   -2.3982    1.8237 H       1  MAIN1       0.0362
     20 H8          2.1989    3.4395   -0.4235 H       1  MAIN1       0.4126
     21 H9          0.4771    2.0807   -2.9184 H       1  MAIN1       0.4184
     22 H10        -0.5407   -1.0480   -2.7328 H       1  MAIN1       0.4132
     23 H11         0.1262   -4.0019    0.2869 H       1  MAIN1       0.4038
     24 H12         0.3910    3.1957    1.1719 H       1  MAIN1       0.4199
@<TRIPOS>BOND
     1     1    10    1
     2     1     2    1
     3     1    12    1
     4     2     7    1
     5     2     3    1
     6     3     8    1
     7     3     4    1
     8     4     9    1
     9     4     5    1
    10    10     5    1
    11     5     6    1
    12     6    11    1
    13     1    13    1
    14     2    14    1
    15     3    15    1
    16     4    16    1
    17     5    17    1
    18     6    18    1
    19     6    19    1
    20     7    20    1
    21     8    21    1
    22     9    22    1
    23    11    23    1
    24    12    24    1
