@<TRIPOS>MOLECULE
25
 29 29 0 0 0
SMALL
USER_CHARGES

@<TRIPOS>ATOM
      1 C1          0.9650    1.3240    1.0440 C.3     1  MAIN1      -0.3865
      2 C2          1.1540    1.6000   -0.4770 C.3     1  MAIN1       0.2900
      3 C3          0.0930    0.8920   -1.3460 C.3     1  MAIN1      -0.0289
      4 C4         -0.0510   -0.5690   -0.8930 C.3     1  MAIN1       0.4850
      5 C5         -0.3370   -0.6240    0.6160 C.3     1  MAIN1       0.0193
      6 C6         -0.6060   -2.0680    1.0580 C.3     1  MAIN1       0.0515
      7 C1         -0.0190    2.2330    1.7550 C.2     1  MAIN1       0.8475
      8 O2          1.2630    2.9980   -0.7810 O.3     1  MAIN1      -0.7435
      9 O3          0.4290    0.9790   -2.7380 O.3     1  MAIN1      -0.6996
     10 O4         -1.0660   -1.2570   -1.6120 O.3     1  MAIN1      -0.7162
     11 O5          0.7580   -0.0630    1.3440 O.3     1  MAIN1      -0.2987
     12 O6          0.3410   -2.9500    0.4610 O.3     1  MAIN1      -0.6645
     13 N20        -0.8060    3.1070    0.9770 N.am    1  MAIN1      -0.6691
     14 O1         -0.0920    2.2800    2.9850 O.2     1  MAIN1      -0.6211
     15 N26        -1.4570    4.3470    1.4430 N.3     1  MAIN1      -0.6129
     16 H1          1.9397    1.5693    1.4909 H       1  MAIN1       0.2190
     17 H2          2.1210    1.1521   -0.7494 H       1  MAIN1       0.0987
     18 H3         -0.8726    1.3972   -1.1962 H       1  MAIN1       0.1220
     19 H4          0.9044   -1.0797   -1.0837 H       1  MAIN1       0.0587
     20 H5         -1.2359   -0.0250    0.8235 H       1  MAIN1       0.1179
     21 H6         -1.6202   -2.3600    0.7479 H       1  MAIN1       0.0890
     22 H7         -0.5240   -2.1341    2.1529 H       1  MAIN1       0.0777
     23 H8          1.9247    3.3923   -0.2250 H       1  MAIN1       0.4529
     24 H9          0.5109    1.8920   -2.9875 H       1  MAIN1       0.4383
     25 H10        -0.8782   -1.2160   -2.5423 H       1  MAIN1       0.4313
     26 H11         0.1650   -3.8404    0.7415 H       1  MAIN1       0.4310
     27 H12        -0.9357    2.8629    0.0160 H       1  MAIN1       0.5465
     28 H13        -2.0127    4.9146    0.7874 H       1  MAIN1       0.3153
     29 H14        -1.3556    4.6447    2.4238 H       1  MAIN1       0.3500
@<TRIPOS>BOND
     1     1    11    1
     2     7     1    1
     3     1     2    1
     4     2     8    1
     5     2     3    1
     6     3     9    1
     7     3     4    1
     8     4    10    1
     9     5     4    1
    10    11     5    1
    11     5     6    1
    12     6    12    1
    13    13    15    1
    14     7    14    2
    15    13     7   am
    16     1    16    1
    17     2    17    1
    18     3    18    1
    19     4    19    1
    20     5    20    1
    21     6    21    1
    22     6    22    1
    23     8    23    1
    24     9    24    1
    25    10    25    1
    26    12    26    1
    27    13    27    1
    28    15    28    1
    29    15    29    1
