@<TRIPOS>MOLECULE
26
 31 31 0 0 0
SMALL
USER_CHARGES

@<TRIPOS>ATOM
      1 C1          1.0780    1.2440    0.9450 C.3     1  MAIN1      -0.2747
      2 C2          1.2090    1.5570   -0.5650 C.3     1  MAIN1       0.1145
      3 C3          0.1320    0.8360   -1.4070 C.3     1  MAIN1       0.1239
      4 C4          0.0020   -0.6340   -0.9690 C.3     1  MAIN1       0.3537
      5 C5         -0.2280   -0.6800    0.5470 C.3     1  MAIN1      -0.0008
      6 C6         -0.5310   -2.1090    1.0190 C.3     1  MAIN1       0.0923
      7 O2          1.1690    2.9710   -0.7850 O.3     1  MAIN1      -0.6250
      8 O3          0.4100    0.9550   -2.8080 O.3     1  MAIN1      -0.6976
      9 O4         -1.0610   -1.2990   -1.6360 O.3     1  MAIN1      -0.6957
     10 O5          0.9160   -0.1520    1.2050 O.3     1  MAIN1      -0.2177
     11 O6          0.3850   -3.0260    0.4280 O.3     1  MAIN1      -0.6606
     12 S7          2.5460    1.8190    1.8350 S.3     1  MAIN1      -0.0101
     13 C7          1.7690    2.1800    3.4340 C.3     1  MAIN1      -0.4982
     14 C8          2.7540    2.8540    4.3510 C.2     1  MAIN1       1.0273
     15 O1          3.9720    2.8260    4.1700 O.2     1  MAIN1      -0.6634
     16 N1          2.2210    3.5170    5.4520 N.am    1  MAIN1      -1.2131
     17 H1          0.1952    1.7758    1.3294 H       1  MAIN1       0.2034
     18 H2          2.1911    1.1902   -0.8982 H       1  MAIN1       0.1251
     19 H3         -0.8327    1.3289   -1.2161 H       1  MAIN1       0.0887
     20 H4          0.9412   -1.1552   -1.2062 H       1  MAIN1       0.0927
     21 H5         -1.0949   -0.0478    0.7897 H       1  MAIN1       0.0913
     22 H6         -1.5561   -2.3791    0.7254 H       1  MAIN1       0.0910
     23 H7         -0.4383   -2.1575    2.1140 H       1  MAIN1       0.0452
     24 H8          1.8381    3.3924   -0.2585 H       1  MAIN1       0.4191
     25 H9          0.4830    1.8735   -3.0394 H       1  MAIN1       0.4535
     26 H10        -0.9147   -1.2682   -2.5742 H       1  MAIN1       0.4406
     27 H11         0.1888   -3.9063    0.7265 H       1  MAIN1       0.4333
     28 H12         1.4296    1.2399    3.8934 H       1  MAIN1       0.1912
     29 H13         0.9061    2.8438    3.2769 H       1  MAIN1       0.1759
     30 H14         2.8270    3.9833    6.0964 H       1  MAIN1       0.4917
     31 H15         1.2319    3.5272    5.5989 H       1  MAIN1       0.5027
@<TRIPOS>BOND
     1     2     1    1
     2     1    10    1
     3     2     3    1
     4     2     7    1
     5     3     4    1
     6     3     8    1
     7     4     5    1
     8     4     9    1
     9     5     6    1
    10    10     5    1
    11     6    11    1
    12     1    12    1
    13    12    13    1
    14    13    14    1
    15    14    15    2
    16    14    16   am
    17     1    17    1
    18     2    18    1
    19     3    19    1
    20     4    20    1
    21     5    21    1
    22     6    22    1
    23     6    23    1
    24     7    24    1
    25     8    25    1
    26     9    26    1
    27    11    27    1
    28    13    28    1
    29    13    29    1
    30    16    30    1
    31    16    31    1
