@<TRIPOS>MOLECULE
31
 29 29 0 0 0
SMALL
USER_CHARGES

@<TRIPOS>ATOM
      1 C1          1.0850    1.3610    0.9720 C.3     1  MAIN1      -0.2191
      2 C2          1.2560    1.6440   -0.5460 C.3     1  MAIN1       0.3607
      3 C3          0.1980    0.9120   -1.4050 C.3     1  MAIN1       0.0067
      4 C4          0.0650   -0.5510   -0.9540 C.3     1  MAIN1       0.3797
      5 C5         -0.1780   -0.5960    0.5600 C.3     1  MAIN1       0.1419
      6 C6         -0.4870   -2.0240    1.0280 C.3     1  MAIN1       0.0574
      7 C1         -0.0340    2.1540    1.6110 C.2     1  MAIN1       0.8741
      8 O2          1.2790    3.0500   -0.8180 O.3     1  MAIN1      -0.6895
      9 O3          0.5090    1.0090   -2.8000 O.3     1  MAIN1      -0.6902
     10 O4         -0.9830   -1.2260   -1.6400 O.3     1  MAIN1      -0.7117
     11 O5          0.9460   -0.0410    1.2470 O.3     1  MAIN1      -0.3919
     12 O6          0.3970   -2.9520    0.4080 O.3     1  MAIN1      -0.6577
     13 O7         -0.7961    2.9023    0.8184 O.3     1  MAIN1      -0.4592
     14 O1         -0.2520    2.1360    2.8190 O.2     1  MAIN1      -0.5948
     15 C7         -1.8320    3.7049    1.3907 C.3     1  MAIN1      -0.0373
     16 H1          2.0171    1.6894    1.4550 H       1  MAIN1       0.1629
     17 H2          2.2377    1.2427   -0.8380 H       1  MAIN1       0.0416
     18 H3         -0.7718    1.4051   -1.2429 H       1  MAIN1       0.1118
     19 H4          1.0098   -1.0691   -1.1752 H       1  MAIN1       0.0656
     20 H5         -1.0557    0.0276    0.7850 H       1  MAIN1       0.0796
     21 H6         -1.5236   -2.2768    0.7604 H       1  MAIN1       0.0832
     22 H7         -0.3656   -2.0818    2.1197 H       1  MAIN1       0.0651
     23 H8          1.9377    3.4668   -0.2750 H       1  MAIN1       0.4105
     24 H9          0.5839    1.9238   -3.0448 H       1  MAIN1       0.4485
     25 H10        -0.8224   -1.1919   -2.5757 H       1  MAIN1       0.4490
     26 H11         0.1941   -3.8307    0.7068 H       1  MAIN1       0.4265
     27 H12        -2.3553    4.2518    0.5926 H       1  MAIN1       0.1166
     28 H13        -1.3913    4.4223    2.0986 H       1  MAIN1       0.0836
     29 H14        -2.5464    3.0581    1.9211 H       1  MAIN1       0.0862
@<TRIPOS>BOND
     1     1    11    1
     2     1     7    1
     3     1     2    1
     4     2     8    1
     5     2     3    1
     6     3     9    1
     7     3     4    1
     8     4    10    1
     9     4     5    1
    10    11     5    1
    11     5     6    1
    12     6    12    1
    13     7    13    1
    14     7    14    2
    15    13    15    1
    16     1    16    1
    17     2    17    1
    18     3    18    1
    19     4    19    1
    20     5    20    1
    21     6    21    1
    22     6    22    1
    23     8    23    1
    24     9    24    1
    25    10    25    1
    26    12    26    1
    27    15    27    1
    28    15    28    1
    29    15    29    1
