@<TRIPOS>MOLECULE
34
 30 30 0 0 0
SMALL
USER_CHARGES

@<TRIPOS>ATOM
      1 C1          0.5780    1.3490    1.1300 C.3     1  MAIN1      -0.3770
      2 C2          1.0670    1.6170   -0.3230 C.3     1  MAIN1       0.3325
      3 C3          0.1520    0.8780   -1.3260 C.3     1  MAIN1       0.0363
      4 C4          0.0000   -0.5950   -0.9090 C.3     1  MAIN1       0.3680
      5 C5         -0.4790   -0.6750    0.5460 C.3     1  MAIN1       0.0429
      6 C6         -0.7080   -2.1310    0.9670 C.3     1  MAIN1       0.0759
      7 O2          1.1140    3.0200   -0.6270 O.3     1  MAIN1      -0.6895
      8 O3          0.6160    1.0120   -2.6780 O.3     1  MAIN1      -0.6960
      9 O4         -0.9070   -1.2960   -1.7400 O.3     1  MAIN1      -0.7099
     10 O5          0.4730   -0.0510    1.3920 O.3     1  MAIN1      -0.3523
     11 O6          0.3330   -2.9630    0.4620 O.3     1  MAIN1      -0.6492
     12 C7          1.4900    1.9060    2.1820 C.2     1  MAIN1       0.8683
     13 O1          1.0830    2.6260    3.0940 O.2     1  MAIN1      -0.6370
     14 N1          2.8180    1.5020    2.1400 N.am    1  MAIN1      -0.7785
     15 C8          3.7700    1.8580    3.2110 C.3     1  MAIN1       0.0289
     16 H1         -0.4133    1.8127    1.2409 H       1  MAIN1       0.1929
     17 H2          2.0861    1.2145   -0.4203 H       1  MAIN1       0.0622
     18 H3         -0.8434    1.3434   -1.2754 H       1  MAIN1       0.1069
     19 H4          0.9850   -1.0786   -0.9859 H       1  MAIN1       0.0835
     20 H5         -1.4335   -0.1351    0.6319 H       1  MAIN1       0.1017
     21 H6         -1.6734   -2.4761    0.5685 H       1  MAIN1       0.0912
     22 H7         -0.7212   -2.1931    2.0652 H       1  MAIN1       0.0524
     23 H8          1.6792    3.4604   -0.0032 H       1  MAIN1       0.4327
     24 H9          0.6962    1.9333   -2.8954 H       1  MAIN1       0.4501
     25 H10        -0.6123   -1.2478   -2.6418 H       1  MAIN1       0.4520
     26 H11         0.1786   -3.8612    0.7301 H       1  MAIN1       0.4279
     27 H12         3.1374    0.9564    1.3652 H       1  MAIN1       0.4712
     28 H13         4.7593    1.4380    2.9767 H       1  MAIN1       0.0524
     29 H14         3.4151    1.4483    4.1682 H       1  MAIN1       0.0655
     30 H15         3.8449    2.9529    3.2860 H       1  MAIN1       0.0943
@<TRIPOS>BOND
     1     1    10    1
     2     1     2    1
     3     2     7    1
     4     2     3    1
     5     3     8    1
     6     3     4    1
     7     4     9    1
     8     4     5    1
     9    10     5    1
    10     5     6    1
    11     6    11    1
    12     1    12    1
    13    12    13    2
    14    12    14   am
    15    14    15    1
    16     1    16    1
    17     2    17    1
    18     3    18    1
    19     4    19    1
    20     5    20    1
    21     6    21    1
    22     6    22    1
    23     7    23    1
    24     8    24    1
    25     9    25    1
    26    11    26    1
    27    14    27    1
    28    15    28    1
    29    15    29    1
    30    15    30    1
