@<TRIPOS>MOLECULE
35
 29 29 0 0 0
SMALL
USER_CHARGES

@<TRIPOS>ATOM
      1 C1          0.7680    1.3700    1.1740 C.3     1  MAIN1      -0.4215
      2 C2          1.2330    1.6690   -0.2870 C.3     1  MAIN1       0.3595
      3 C3          0.3060    0.9410   -1.2930 C.3     1  MAIN1       0.0373
      4 C4          0.1300   -0.5340   -0.9000 C.3     1  MAIN1       0.3508
      5 C5         -0.3460   -0.6160    0.5540 C.3     1  MAIN1       0.0593
      6 C6         -0.6420   -2.0660    0.9570 C.3     1  MAIN1       0.0864
      7 O1          1.2110    2.6800    3.1370 O.2     1  MAIN1      -0.6517
      8 O2          1.2360    3.0740   -0.5800 O.3     1  MAIN1      -0.6967
      9 O3          0.7490    1.0840   -2.6500 O.3     1  MAIN1      -0.6954
     10 O4         -0.7930   -1.2020   -1.7470 O.3     1  MAIN1      -0.7098
     11 O5          0.6340   -0.0370    1.4040 O.3     1  MAIN1      -0.3531
     12 O6          0.3570   -2.9410    0.4400 O.3     1  MAIN1      -0.6525
     13 H12         1.6490    1.9180    2.2730 C.2     1  MAIN1       0.8469
     14 N1          2.9750    1.4320    2.3820 N.am    1  MAIN1      -0.5997
     15 N13         3.8661    1.7010    3.5583 N.3     1  MAIN1      -0.6283
     16 H1         -0.2233    1.8332    1.2872 H       1  MAIN1       0.2089
     17 H2          2.2577    1.2875   -0.4073 H       1  MAIN1       0.0591
     18 H3         -0.6833    1.4174   -1.2268 H       1  MAIN1       0.1089
     19 H4          1.1049   -1.0364   -0.9848 H       1  MAIN1       0.0890
     20 H5         -1.2765   -0.0372    0.6498 H       1  MAIN1       0.0986
     21 H6         -1.6233   -2.3601    0.5564 H       1  MAIN1       0.0893
     22 H7         -0.6564   -2.1411    2.0543 H       1  MAIN1       0.0504
     23 H8          1.8033    3.5244    0.0346 H       1  MAIN1       0.4390
     24 H9          0.8462    2.0063   -2.8558 H       1  MAIN1       0.4496
     25 H10        -0.4932   -1.1482   -2.6469 H       1  MAIN1       0.4551
     26 H11         0.1600   -3.8339    0.6977 H       1  MAIN1       0.4290
     27 H13         3.3376    0.8782    1.6324 H       1  MAIN1       0.5128
     28 H14         4.8222    1.2238    3.4021 H       1  MAIN1       0.3223
     29 H15         3.4090    1.3068    4.4538 H       1  MAIN1       0.3563
@<TRIPOS>BOND
     1     1    11    1
     2    13     7    2
     3     1     2    1
     4     2     8    1
     5     2     3    1
     6     3     9    1
     7     3     4    1
     8     4    10    1
     9     5     4    1
    10    11     5    1
    11     5     6    1
    12     6    12    1
    13     1    13    1
    14    13    14   am
    15    14    15    1
    16     1    16    1
    17     2    17    1
    18     3    18    1
    19     4    19    1
    20     5    20    1
    21     6    21    1
    22     6    22    1
    23     8    23    1
    24     9    24    1
    25    10    25    1
    26    12    26    1
    27    14    27    1
    28    15    28    1
    29    15    29    1
