@<TRIPOS>MOLECULE
37
 30 30 0 0 0
SMALL
USER_CHARGES

@<TRIPOS>ATOM
      1 C1          1.3670    1.1580    0.8620 C.3     1  MAIN1       0.2120
      2 C2          1.3510    1.5440   -0.6420 C.3     1  MAIN1       0.1558
      3 C3          0.2070    0.8640   -1.4300 C.3     1  MAIN1       0.0952
      4 C4          0.0420   -0.6040   -1.0080 C.3     1  MAIN1       0.3453
      5 C5         -0.1030   -0.6610    0.5120 C.3     1  MAIN1       0.0363
      6 C6         -0.4710   -2.0750    0.9770 C.3     1  MAIN1       0.1074
      7 O2          1.2790    2.9690   -0.7880 O.3     1  MAIN1      -0.7214
      8 O3          0.4240    0.9830   -2.8410 O.3     1  MAIN1      -0.7036
      9 O4         -1.0790   -1.2190   -1.6260 O.3     1  MAIN1      -0.7005
     10 O5          1.1200   -0.2340    1.0900 O.3     1  MAIN1      -0.3824
     11 O6          0.4070   -3.0290    0.3900 O.3     1  MAIN1      -0.6507
     12 N1          2.6810    1.4640    1.4510 N.am    1  MAIN1      -0.9001
     13 C7          2.8000    1.9750    2.7390 C.2     1  MAIN1       0.9620
     14 C8          4.1870    2.1380    3.2900 C.3     1  MAIN1      -0.4977
     15 O7          1.7930    2.2660    3.3850 O.2     1  MAIN1      -0.6987
     16 H1          0.5907    1.7445    1.3752 H       1  MAIN1       0.1271
     17 H2          2.3010    1.2045   -1.0805 H       1  MAIN1       0.0897
     18 H3         -0.7287    1.3893   -1.1881 H       1  MAIN1       0.0824
     19 H4          0.9458   -1.1572   -1.3031 H       1  MAIN1       0.0842
     20 H5         -0.9042    0.0262    0.8215 H       1  MAIN1       0.0873
     21 H6         -1.5049   -2.2991    0.6758 H       1  MAIN1       0.0814
     22 H7         -0.3880   -2.1305    2.0724 H       1  MAIN1       0.0472
     23 H8          1.9864    3.3735   -0.2997 H       1  MAIN1       0.4893
     24 H9          0.5219    1.8997   -3.0701 H       1  MAIN1       0.4655
     25 H10        -0.9813   -1.1795   -2.5701 H       1  MAIN1       0.4462
     26 H11         0.1702   -3.9006    0.6846 H       1  MAIN1       0.4236
     27 H12         3.5075    1.3006    0.9123 H       1  MAIN1       0.4800
     28 H13         4.1308    2.5485    4.3090 H       1  MAIN1       0.1530
     29 H14         4.7579    2.8256    2.6487 H       1  MAIN1       0.1520
     30 H15         4.6885    1.1594    3.3162 H       1  MAIN1       0.1321
@<TRIPOS>BOND
     1     1    10    1
     2     1     2    1
     3     2     7    1
     4     2     3    1
     5     3     8    1
     6     3     4    1
     7     4     9    1
     8     4     5    1
     9     5    10    1
    10     5     6    1
    11     6    11    1
    12     1    12    1
    13    12    13   am
    14    13    14    1
    15    13    15    2
    16     1    16    1
    17     2    17    1
    18     3    18    1
    19     4    19    1
    20     5    20    1
    21     6    21    1
    22     6    22    1
    23     7    23    1
    24     8    24    1
    25     9    25    1
    26    11    26    1
    27    12    27    1
    28    14    28    1
    29    14    29    1
    30    14    30    1
