@<TRIPOS>MOLECULE
38
 33 33 0 0 0
SMALL
USER_CHARGES

@<TRIPOS>ATOM
      1 C1          1.3750    1.1580    0.8570 C.3     1  MAIN1       0.3657
      2 C2          1.3520    1.5450   -0.6460 C.3     1  MAIN1       0.0886
      3 C3          0.2050    0.8660   -1.4320 C.3     1  MAIN1       0.0742
      4 C4          0.0420   -0.6020   -1.0100 C.3     1  MAIN1       0.3703
      5 C5         -0.1000   -0.6590    0.5090 C.3     1  MAIN1       0.0225
      6 C6         -0.4690   -2.0720    0.9750 C.3     1  MAIN1       0.1285
      7 O2          1.2790    2.9710   -0.7900 O.3     1  MAIN1      -0.6958
      8 O3          0.4200    0.9840   -2.8420 O.3     1  MAIN1      -0.6967
      9 O4         -1.0810   -1.2170   -1.6260 O.3     1  MAIN1      -0.7029
     10 O5          1.1250   -0.2330    1.0860 O.3     1  MAIN1      -0.3843
     11 O6          0.4080   -3.0280    0.3890 O.3     1  MAIN1      -0.6549
     12 N1          2.6940    1.4590    1.4360 N.am    1  MAIN1      -1.0386
     13 C7          2.8290    1.9880    2.7150 C.2     1  MAIN1       0.9261
     14 C8          4.2290    2.1380    3.2420 C.3     1  MAIN1      -0.0841
     15 O7          1.8290    2.2940    3.3650 O.2     1  MAIN1      -0.6779
     16 C9          4.2690    3.1050    4.4310 C.3     1  MAIN1      -0.1836
     17 H1          0.6042    1.7470    1.3756 H       1  MAIN1       0.1018
     18 H2          2.3004    1.2063   -1.0886 H       1  MAIN1       0.1034
     19 H3         -0.7301    1.3914   -1.1883 H       1  MAIN1       0.0885
     20 H4          0.9454   -1.1548   -1.3071 H       1  MAIN1       0.0760
     21 H5         -0.8999    0.0291    0.8197 H       1  MAIN1       0.0801
     22 H6         -1.5032   -2.2953    0.6740 H       1  MAIN1       0.0798
     23 H7         -0.3860   -2.1265    2.0705 H       1  MAIN1       0.0412
     24 H8          1.9878    3.3751   -0.3033 H       1  MAIN1       0.4684
     25 H9          0.5169    1.9007   -3.0719 H       1  MAIN1       0.4644
     26 H10        -0.9852   -1.1775   -2.5703 H       1  MAIN1       0.4456
     27 H11         0.1701   -3.8989    0.6846 H       1  MAIN1       0.4214
     28 H12         3.5154    1.2783    0.8951 H       1  MAIN1       0.4841
     29 H13         4.8750    2.5264    2.4409 H       1  MAIN1       0.0564
     30 H14         4.5984    1.1540    3.5664 H       1  MAIN1       0.0532
     31 H15         5.3029    3.1954    4.7954 H       1  MAIN1       0.0594
     32 H16         3.6281    2.7205    5.2381 H       1  MAIN1       0.0556
     33 H17         3.9047    4.0929    4.1126 H       1  MAIN1       0.0635
@<TRIPOS>BOND
     1     1    10    1
     2     1     2    1
     3     2     7    1
     4     2     3    1
     5     3     8    1
     6     3     4    1
     7     4     9    1
     8     4     5    1
     9     5    10    1
    10     5     6    1
    11     6    11    1
    12     1    12    1
    13    12    13   am
    14    13    14    1
    15    13    15    2
    16    14    16    1
    17     1    17    1
    18     2    18    1
    19     3    19    1
    20     4    20    1
    21     5    21    1
    22     6    22    1
    23     6    23    1
    24     7    24    1
    25     8    25    1
    26     9    26    1
    27    11    27    1
    28    12    28    1
    29    14    29    1
    30    14    30    1
    31    16    31    1
    32    16    32    1
    33    16    33    1
