@<TRIPOS>MOLECULE
39
 30 30 0 0 0
SMALL
USER_CHARGES

@<TRIPOS>ATOM
      1 C1          1.3740    1.1550    0.8550 C.3     1  MAIN1       0.1466
      2 C2          1.3470    1.5420   -0.6480 C.3     1  MAIN1       0.2160
      3 C3          0.1990    0.8630   -1.4310 C.3     1  MAIN1       0.1198
      4 C4          0.0360   -0.6040   -1.0080 C.3     1  MAIN1       0.3512
      5 C5         -0.1050   -0.6600    0.5110 C.3     1  MAIN1       0.0120
      6 C6         -0.4740   -2.0730    0.9790 C.3     1  MAIN1       0.0790
      7 O2          1.2760    2.9680   -0.7910 O.3     1  MAIN1      -0.7610
      8 O3          0.4110    0.9810   -2.8420 O.3     1  MAIN1      -0.7218
      9 O4         -1.0870   -1.2210   -1.6230 O.3     1  MAIN1      -0.7048
     10 O5          1.1200   -0.2350    1.0860 O.3     1  MAIN1      -0.3406
     11 O6          0.4020   -3.0290    0.3920 O.3     1  MAIN1      -0.6523
     12 N1          2.6990    1.4470    1.4260 N.am    1  MAIN1      -0.9407
     13 C7          2.8480    1.9830    2.7000 C.2     1  MAIN1       1.2825
     14 C8          4.2490    2.1240    3.2210 C.3     1  MAIN1      -1.1299
     15 O7          1.8570    2.3080    3.3560 O.2     1  MAIN1      -0.7445
     16 Br1         4.2880    3.2890    4.7660 Br      1  MAIN1       0.0826
     17 H1          0.6092    1.7482    1.3776 H       1  MAIN1       0.1165
     18 H2          2.2941    1.2027   -1.0929 H       1  MAIN1       0.0730
     19 H3         -0.7355    1.3888   -1.1856 H       1  MAIN1       0.0791
     20 H4          0.9395   -1.1567   -1.3050 H       1  MAIN1       0.0860
     21 H5         -0.9043    0.0288    0.8220 H       1  MAIN1       0.1046
     22 H6         -1.5087   -2.2964    0.6799 H       1  MAIN1       0.0949
     23 H7         -0.3892   -2.1268    2.0744 H       1  MAIN1       0.0524
     24 H8          1.9863    3.3707   -0.3054 H       1  MAIN1       0.5207
     25 H9          0.5079    1.8976   -3.0721 H       1  MAIN1       0.4734
     26 H10        -0.9919   -1.1821   -2.5674 H       1  MAIN1       0.4492
     27 H11         0.1647   -3.8998    0.6884 H       1  MAIN1       0.4288
     28 H12         3.5155    1.2542    0.8818 H       1  MAIN1       0.4748
     29 H13         4.8870    2.5487    2.4320 H       1  MAIN1       0.3807
     30 H14         4.6300    1.1324    3.5065 H       1  MAIN1       0.3717
@<TRIPOS>BOND
     1     1    10    1
     2     1     2    1
     3     2     7    1
     4     2     3    1
     5     3     8    1
     6     3     4    1
     7     4     9    1
     8     4     5    1
     9     5    10    1
    10     5     6    1
    11     6    11    1
    12     1    12    1
    13    12    13   am
    14    13    14    1
    15    13    15    2
    16    14    16    1
    17     1    17    1
    18     2    18    1
    19     3    19    1
    20     4    20    1
    21     5    21    1
    22     6    22    1
    23     6    23    1
    24     7    24    1
    25     8    25    1
    26     9    26    1
    27    11    27    1
    28    12    28    1
    29    14    29    1
    30    14    30    1
