@<TRIPOS>MOLECULE
41
 36 36 0 0 0
SMALL
USER_CHARGES

@<TRIPOS>ATOM
      1 C1          1.3680    1.1500    0.8640 C.3     1  MAIN1       0.3436
      2 C2          1.3460    1.5390   -0.6390 C.3     1  MAIN1       0.0963
      3 C3          0.2000    0.8610   -1.4260 C.3     1  MAIN1       0.0838
      4 C4          0.0350   -0.6080   -1.0050 C.3     1  MAIN1       0.3626
      5 C5         -0.1040   -0.6670    0.5150 C.3     1  MAIN1       0.0446
      6 C6         -0.4710   -2.0810    0.9800 C.3     1  MAIN1       0.1202
      7 O2          1.2750    2.9650   -0.7840 O.3     1  MAIN1      -0.7168
      8 O3          0.4150    0.9800   -2.8370 O.3     1  MAIN1      -0.7020
      9 O4         -1.0890   -1.2210   -1.6210 O.3     1  MAIN1      -0.7041
     10 O5          1.1220   -0.2420    1.0900 O.3     1  MAIN1      -0.3970
     11 O6          0.4060   -3.0340    0.3910 O.3     1  MAIN1      -0.6538
     12 N1          2.6850    1.4570    1.4450 N.am    1  MAIN1      -1.0148
     13 C7          2.8170    1.9820    2.7260 C.2     1  MAIN1       0.9632
     14 C8          4.2150    2.1620    3.2470 C.3     1  MAIN1      -0.3522
     15 O7          1.8150    2.2660    3.3840 O.2     1  MAIN1      -0.7149
     16 C9          4.2510    3.2210    4.3540 C.3     1  MAIN1       0.2259
     17 C10         5.6880    3.4510    4.8310 C.3     1  MAIN1      -0.2548
     18 H1          0.5941    1.7353    1.3821 H       1  MAIN1       0.1062
     19 H2          2.2945    1.1996   -1.0809 H       1  MAIN1       0.1043
     20 H3         -0.7349    1.3869   -1.1823 H       1  MAIN1       0.0844
     21 H4          0.9372   -1.1616   -1.3041 H       1  MAIN1       0.0772
     22 H5         -0.9035    0.0204    0.8284 H       1  MAIN1       0.0755
     23 H6         -1.5054   -2.3052    0.6805 H       1  MAIN1       0.0772
     24 H7         -0.3860   -2.1371    2.0753 H       1  MAIN1       0.0435
     25 H8          1.9835    3.3685   -0.2964 H       1  MAIN1       0.4989
     26 H9          0.5131    1.8967   -3.0661 H       1  MAIN1       0.4693
     27 H10        -0.9942   -1.1798   -2.5654 H       1  MAIN1       0.4467
     28 H11         0.1701   -3.9058    0.6855 H       1  MAIN1       0.4233
     29 H12         3.5076    1.2833    0.9036 H       1  MAIN1       0.4923
     30 H13         4.8692    2.4804    2.4220 H       1  MAIN1       0.1103
     31 H14         4.5750    1.2047    3.6519 H       1  MAIN1       0.1018
     32 H15         3.6388    2.8794    5.2016 H       1  MAIN1      -0.0167
     33 H16         3.8435    4.1656    3.9645 H       1  MAIN1      -0.0037
     34 H17         5.6935    4.2131    5.6242 H       1  MAIN1       0.0548
     35 H18         6.3037    3.7957    3.9872 H       1  MAIN1       0.0667
     36 H19         6.0989    2.5095    5.2243 H       1  MAIN1       0.0583
@<TRIPOS>BOND
     1     1    10    1
     2     1     2    1
     3     2     7    1
     4     2     3    1
     5     3     8    1
     6     3     4    1
     7     4     9    1
     8     4     5    1
     9    10     5    1
    10     5     6    1
    11     6    11    1
    12     1    12    1
    13    12    13   am
    14    13    14    1
    15    13    15    2
    16    14    16    1
    17    16    17    1
    18     1    18    1
    19     2    19    1
    20     3    20    1
    21     4    21    1
    22     5    22    1
    23     6    23    1
    24     6    24    1
    25     7    25    1
    26     8    26    1
    27     9    27    1
    28    11    28    1
    29    12    29    1
    30    14    30    1
    31    14    31    1
    32    16    32    1
    33    16    33    1
    34    17    34    1
    35    17    35    1
    36    17    36    1
