@<TRIPOS>MOLECULE
43
 32 32 0 0 0
SMALL
USER_CHARGES

@<TRIPOS>ATOM
      1 C1          1.2820    1.1340    0.8410 C.3     1  MAIN1       0.6033
      2 C2          1.3680    1.4010   -0.6830 C.3     1  MAIN1       0.1257
      3 C3          0.1770    0.8140   -1.4500 C.3     1  MAIN1       0.0142
      4 C4         -0.0390   -0.6500   -1.0140 C.3     1  MAIN1       0.3577
      5 C5         -0.2170   -0.6950    0.5070 C.3     1  MAIN1      -0.0679
      6 C6         -0.5560   -2.1130    0.9730 C.3     1  MAIN1       0.1560
      7 O2          1.5210    2.8130   -0.9440 O.3     1  MAIN1      -0.7164
      8 O3          0.3970    0.9290   -2.8560 O.3     1  MAIN1      -0.6860
      9 O4         -1.1680   -1.2440   -1.6370 O.3     1  MAIN1      -0.6878
     10 O5          0.9670   -0.2380    1.1350 O.3     1  MAIN1      -0.4076
     11 O6          0.3730   -3.0390    0.4180 O.3     1  MAIN1      -0.6436
     12 N1          2.6000    1.3440    1.4170 N.am    1  MAIN1      -1.2215
     13 C7          2.8620    1.7730    2.7070 C.2     1  MAIN1       0.9993
     14 O1          1.9680    2.0380    3.5130 O.2     1  MAIN1      -0.6935
     15 C8          4.3260    1.8500    2.9980 C.3     1  MAIN1       0.1232
     16 N2          4.5920    2.2520    4.3890 N.3     1  MAIN1      -0.9707
     17 H1          0.5375    1.8048    1.2945 H       1  MAIN1       0.0361
     18 H2          2.2724    0.8961   -1.0532 H       1  MAIN1       0.1033
     19 H3         -0.7260    1.3881   -1.1951 H       1  MAIN1       0.0981
     20 H4          0.8540   -1.2304   -1.2891 H       1  MAIN1       0.0825
     21 H5         -1.0461   -0.0279    0.7854 H       1  MAIN1       0.1071
     22 H6         -1.5723   -2.3729    0.6420 H       1  MAIN1       0.0735
     23 H7         -0.5050   -2.1585    2.0709 H       1  MAIN1       0.0410
     24 H8          2.2648    3.1464   -0.4561 H       1  MAIN1       0.4782
     25 H9          0.5251    1.8426   -3.0828 H       1  MAIN1       0.4676
     26 H10        -1.0597   -1.2172   -2.5804 H       1  MAIN1       0.4456
     27 H11         0.1580   -3.9170    0.7104 H       1  MAIN1       0.4161
     28 H12         3.3881    1.1623    0.8288 H       1  MAIN1       0.5189
     29 H13         4.7841    2.5868    2.3218 H       1  MAIN1       0.0943
     30 H14         4.7754    0.8616    2.8220 H       1  MAIN1       0.0019
     31 H15         5.6585    2.2944    4.5538 H       1  MAIN1       0.3856
     32 H16         4.1521    1.5313    5.0624 H       1  MAIN1       0.3655
@<TRIPOS>BOND
     1     1    10    1
     2     1     2    1
     3     2     7    1
     4     2     3    1
     5     3     8    1
     6     3     4    1
     7     4     9    1
     8     4     5    1
     9    10     5    1
    10     5     6    1
    11     6    11    1
    12     1    12    1
    13    12    13   am
    14    13    14    2
    15    13    15    1
    16    15    16    1
    17     1    17    1
    18     2    18    1
    19     3    19    1
    20     4    20    1
    21     5    21    1
    22     6    22    1
    23     6    23    1
    24     7    24    1
    25     8    25    1
    26     9    26    1
    27    11    27    1
    28    12    28    1
    29    15    29    1
    30    15    30    1
    31    16    31    1
    32    16    32    1
