@<TRIPOS>MOLECULE
44
 37 38 0 0 0
SMALL
USER_CHARGES

@<TRIPOS>ATOM
      1 C1          0.5340    1.1690    1.1530 C.3     1  MAIN1      -0.2955
      2 C2          1.0150    1.5150   -0.2720 C.3     1  MAIN1       0.2697
      3 C3          0.1280    0.7560   -1.2910 C.3     1  MAIN1       0.0579
      4 C4          0.0040   -0.7330   -0.8980 C.3     1  MAIN1       0.3387
      5 C5         -0.3840   -0.8650    0.5870 C.3     1  MAIN1      -0.0017
      6 C6         -0.6210   -2.3240    0.9910 C.3     1  MAIN1       0.0756
      7 O1          0.5340    2.7650    2.8800 O.2     1  MAIN1      -0.6486
      8 O2          0.9640    2.9290   -0.5130 O.3     1  MAIN1      -0.7027
      9 O3          0.5940    0.9340   -2.6360 O.3     1  MAIN1      -0.7020
     10 O4         -0.9610   -1.3940   -1.7030 O.3     1  MAIN1      -0.7018
     11 O5          0.5850   -0.2290    1.4210 O.3     1  MAIN1      -0.3288
     12 O6          0.3910   -3.1620    0.4460 O.3     1  MAIN1      -0.6477
     13 H12         1.2050    1.9620    2.2330 C.2     1  MAIN1       0.9296
     14 N1          2.6070    1.7760    2.4550 N.am    1  MAIN1      -0.9777
     15 C7          3.3912    2.3486    3.4857 C.ar    1  MAIN1       0.5458
     16 C8          2.8482    2.8466    4.6767 C.ar    1  MAIN1      -0.3575
     17 C9          3.6632    3.4416    5.6327 C.ar    1  MAIN1      -0.0565
     18 C10         5.0382    3.5076    5.4307 C.ar    1  MAIN1      -0.2425
     19 C11         5.5912    2.9696    4.2727 C.ar    1  MAIN1      -0.0363
     20 C12         4.7752    2.3936    3.3017 C.ar    1  MAIN1      -0.4144
     21 H1         -0.5288    1.4507    1.1868 H       1  MAIN1       0.1784
     22 H2          2.0567    1.1804   -0.3858 H       1  MAIN1       0.0742
     23 H3         -0.8805    1.1922   -1.2392 H       1  MAIN1       0.1112
     24 H4          0.9800   -1.2162   -1.0524 H       1  MAIN1       0.0907
     25 H5         -1.3364   -0.3323    0.7258 H       1  MAIN1       0.1199
     26 H6         -1.6020   -2.6492    0.6144 H       1  MAIN1       0.0986
     27 H7         -0.6047   -2.4032    2.0880 H       1  MAIN1       0.0557
     28 H8          1.5124    3.3780    0.1196 H       1  MAIN1       0.4529
     29 H9          0.6537    1.8620   -2.8302 H       1  MAIN1       0.4606
     30 H10        -0.7200   -1.3115   -2.6182 H       1  MAIN1       0.4543
     31 H11         0.2304   -4.0618    0.7049 H       1  MAIN1       0.4272
     32 H13         3.0844    1.1766    1.8124 H       1  MAIN1       0.5158
     33 H14         1.7818    2.7673    4.8548 H       1  MAIN1       0.2181
     34 H15         3.2275    3.8541    6.5355 H       1  MAIN1       0.1466
     35 H16         5.6756    3.9759    6.1719 H       1  MAIN1       0.1558
     36 H17         6.6647    2.9989    4.1251 H       1  MAIN1       0.1409
     37 H18         5.2150    1.9795    2.4016 H       1  MAIN1       0.1957
@<TRIPOS>BOND
     1     1    11    1
     2    13     7    2
     3     1     2    1
     4     2     8    1
     5     2     3    1
     6     3     9    1
     7     3     4    1
     8     4    10    1
     9     5     4    1
    10    11     5    1
    11     5     6    1
    12     6    12    1
    13     1    13    1
    14    13    14   am
    15    14    15    1
    16    15    16   ar
    17    16    17   ar
    18    17    18   ar
    19    18    19   ar
    20    19    20   ar
    21    15    20   ar
    22     1    21    1
    23     2    22    1
    24     3    23    1
    25     4    24    1
    26     5    25    1
    27     6    26    1
    28     6    27    1
    29     8    28    1
    30     9    29    1
    31    10    30    1
    32    12    31    1
    33    14    32    1
    34    16    33    1
    35    17    34    1
    36    18    35    1
    37    19    36    1
    38    20    37    1
