@<TRIPOS>MOLECULE
50
 41 42 0 0 0
SMALL
USER_CHARGES

@<TRIPOS>ATOM
      1 C1          1.0310    1.2680    0.9960 C.3     1  MAIN1       0.0727
      2 C2          1.1790    1.5760   -0.5160 C.3     1  MAIN1       0.0883
      3 C3          0.1070    0.8640   -1.3710 C.3     1  MAIN1       0.1009
      4 C4         -0.0320   -0.6030   -0.9350 C.3     1  MAIN1       0.3141
      5 C5         -0.2700   -0.6630    0.5780 C.3     1  MAIN1       0.1798
      6 C6         -0.5550   -2.1000    1.0260 C.3     1  MAIN1       0.1557
      7 S1          2.5160    1.8350    1.8650 S.3     1  MAIN1      -0.0468
      8 O2          1.1550    2.9910   -0.7410 O.3     1  MAIN1      -0.6657
      9 O3          0.4130    0.9710   -2.7680 O.3     1  MAIN1      -0.7010
     10 O4         -1.0840   -1.2690   -1.6210 O.3     1  MAIN1      -0.7115
     11 O5          0.8660   -0.1320    1.2520 O.3     1  MAIN1      -0.4356
     12 O6          0.3770   -2.9960    0.4270 O.3     1  MAIN1      -0.6829
     13 C7          1.8250    2.2890    3.4820 C.3     1  MAIN1      -0.5499
     14 C8          2.9020    2.9150    4.3290 C.2     1  MAIN1       1.0617
     15 N1          2.5110    3.3660    5.6300 N.am    1  MAIN1      -1.1120
     16 O1          4.0610    3.0030    3.9240 O.2     1  MAIN1      -0.5681
     17 C           3.3301    3.9234    6.6417 C.ar    1  MAIN1       0.5540
     18 C           2.8171    3.9114    7.9427 C.ar    1  MAIN1      -0.3921
     19 C           3.5651    4.4304    8.9957 C.ar    1  MAIN1      -0.0562
     20 C           4.8281    4.9724    8.7567 C.ar    1  MAIN1      -0.2437
     21 C           5.3431    4.9914    7.4607 C.ar    1  MAIN1      -0.0378
     22 C           4.5991    4.4684    6.4067 C.ar    1  MAIN1      -0.3649
     23 H1          0.1522    1.8059    1.3812 H       1  MAIN1       0.1184
     24 H2          2.1613    1.1994   -0.8372 H       1  MAIN1       0.1368
     25 H3         -0.8574    1.3636   -1.1970 H       1  MAIN1       0.0883
     26 H4          0.9100   -1.1224   -1.1649 H       1  MAIN1       0.0881
     27 H5         -1.1457   -0.0439    0.8227 H       1  MAIN1       0.0191
     28 H6         -1.5746   -2.3798    0.7225 H       1  MAIN1       0.0590
     29 H7         -0.4679   -2.1634    2.1207 H       1  MAIN1       0.0372
     30 H8          1.8206    3.4079   -0.2065 H       1  MAIN1       0.4237
     31 H9          0.4923    1.8874   -3.0055 H       1  MAIN1       0.4636
     32 H10        -0.9282   -1.2267   -2.5572 H       1  MAIN1       0.4567
     33 H11         0.1911   -3.8831    0.7115 H       1  MAIN1       0.4395
     34 H12         1.4414    1.3881    3.9832 H       1  MAIN1       0.2064
     35 H13         1.0044    3.0080    3.3416 H       1  MAIN1       0.1775
     36 H14         1.5400    3.2764    5.8517 H       1  MAIN1       0.4792
     37 H15         1.8336    3.4965    8.1317 H       1  MAIN1       0.1849
     38 H16         3.1654    4.4134   10.0032 H       1  MAIN1       0.1428
     39 H17         5.4085    5.3783    9.5773 H       1  MAIN1       0.1573
     40 H18         6.3237    5.4139    7.2739 H       1  MAIN1       0.1460
     41 H19         5.0030    4.4829    5.4008 H       1  MAIN1       0.2161
@<TRIPOS>BOND
     1     1    11    1
     2     7     1    1
     3     1     2    1
     4     2     8    1
     5     2     3    1
     6     3     9    1
     7     3     4    1
     8     4    10    1
     9     5     4    1
    10    11     5    1
    11     5     6    1
    12     6    12    1
    13    13     7    1
    14    14    13    1
    15    15    14   am
    16    14    16    2
    17    17    18   ar
    18    17    22   ar
    19    22    21   ar
    20    21    20   ar
    21    19    20   ar
    22    18    19   ar
    23    15    17    1
    24     1    23    1
    25     2    24    1
    26     3    25    1
    27     4    26    1
    28     5    27    1
    29     6    28    1
    30     6    29    1
    31     8    30    1
    32     9    31    1
    33    10    32    1
    34    12    33    1
    35    13    34    1
    36    13    35    1
    37    15    36    1
    38    18    37    1
    39    19    38    1
    40    20    39    1
    41    21    40    1
    42    22    41    1
