@<TRIPOS>MOLECULE
64
 31 31 0 0 0
SMALL
USER_CHARGES

@<TRIPOS>ATOM
      1 C1          1.3690    1.1420    0.8540 C.3     1  MAIN1       0.5330
      2 C2          1.3400    1.5320   -0.6480 C.3     1  MAIN1       0.0663
      3 C3          0.1880    0.8560   -1.4280 C.3     1  MAIN1       0.0629
      4 C4          0.0240   -0.6120   -1.0060 C.3     1  MAIN1       0.3659
      5 C5         -0.1070   -0.6720    0.5150 C.3     1  MAIN1      -0.0681
      6 C6         -0.4720   -2.0860    0.9800 C.3     1  MAIN1       0.1206
      7 O2          1.2720    2.9580   -0.7900 O.3     1  MAIN1      -0.6965
      8 O3          0.3970    0.9750   -2.8400 O.3     1  MAIN1      -0.6910
      9 O4         -1.1050   -1.2240   -1.6150 O.3     1  MAIN1      -0.6900
     10 O5          1.1230   -0.2500    1.0810 O.3     1  MAIN1      -0.3780
     11 O6          0.4060   -3.0380    0.3890 O.3     1  MAIN1      -0.6437
     12 N1          2.6880    1.4490    1.4270 N.am    1  MAIN1      -1.1297
     13 C7          2.8180    2.0250    2.6910 C.2     1  MAIN1       1.2400
     14 O1          1.8490    2.3780    3.3730 O.2     1  MAIN1      -0.7636
     15 O8          4.0696    2.1799    3.1134 O.3     1  MAIN1      -0.5095
     16 C9          4.2946    2.8437    4.3598 C.3     1  MAIN1       0.0320
     17 H1          0.5979    1.7274    1.3762 H       1  MAIN1       0.0522
     18 H2          2.2851    1.1910   -1.0956 H       1  MAIN1       0.1132
     19 H3         -0.7449    1.3832   -1.1794 H       1  MAIN1       0.0893
     20 H4          0.9239   -1.1666   -1.3104 H       1  MAIN1       0.0836
     21 H5         -0.9036    0.0162    0.8342 H       1  MAIN1       0.1118
     22 H6         -1.5065   -2.3112    0.6817 H       1  MAIN1       0.0834
     23 H7         -0.3855   -2.1424    2.0751 H       1  MAIN1       0.0527
     24 H8          1.9847    3.3587   -0.3063 H       1  MAIN1       0.4667
     25 H9          0.4946    1.8917   -3.0695 H       1  MAIN1       0.4659
     26 H10        -1.0163   -1.1828   -2.5599 H       1  MAIN1       0.4420
     27 H11         0.1716   -3.9103    0.6833 H       1  MAIN1       0.4207
     28 H12         3.5108    1.2401    0.8984 H       1  MAIN1       0.5195
     29 H13         5.3750    2.8888    4.5614 H       1  MAIN1       0.1112
     30 H14         3.7939    2.2885    5.1667 H       1  MAIN1       0.0673
     31 H15         3.8880    3.8646    4.3102 H       1  MAIN1       0.0698
@<TRIPOS>BOND
     1     1    12    1
     2    12    13   am
     3     1    10    1
     4     1     2    1
     5     2     7    1
     6     2     3    1
     7     3     8    1
     8     3     4    1
     9     4     9    1
    10     4     5    1
    11     5     6    1
    12    10     5    1
    13     6    11    1
    14    13    15    1
    15    15    16    1
    16    13    14    2
    17     1    17    1
    18     2    18    1
    19     3    19    1
    20     4    20    1
    21     5    21    1
    22     6    22    1
    23     6    23    1
    24     7    24    1
    25     8    25    1
    26     9    26    1
    27    11    27    1
    28    12    28    1
    29    16    29    1
    30    16    30    1
    31    16    31    1
