@<TRIPOS>MOLECULE
CPD_57-b
 100 103 0 0 0
SMALL
GASTEIGER

@<TRIPOS>ATOM
      1 C1          3.8029   -8.0106   13.7430 C.3     1  TOS111     -0.0705
      2 ****        5.0727   -5.7823   14.5057 H       1  TOS111      0.1405
      3 C3          7.5628   -5.0314   15.2704 C.3     1  TOS111     -0.0752
      4 C4          8.7669   -9.5875   13.5099 C.3     1  TOS111     -0.0910
      5 ****        9.0965   -6.9595   14.0246 H       1  TOS111      0.1418
      6 ****        3.5324   -8.8532   13.0956 H       1  TOS111      0.0828
      7 C7          8.4016   -4.0322   14.4293 C.3     1  TOS111     -0.2059
      8 ****        6.7907   -9.3115   10.1838 H       2  APM222      0.1241
      9 ****        5.2669  -10.5840    8.5153 H       2  APM222      0.1186
     10 ****        6.1923   -9.2366    7.8191 H       2  APM222      0.1097
     11 ****        2.8034  -10.4646    8.3925 H       2  APM222      0.1337
     12 ****        5.1399   -7.0061    7.3951 H       2  APM222      0.1615
     13 ****        3.0738   -5.7275    6.9504 H       2  APM222      0.1638
     14 ****        0.8667   -6.7896    7.2587 H       2  APM222      0.1335
     15 ****        3.9412   -9.7066   10.8379 H       2  APM222      0.2310
     16 ****       -1.6018   -9.3353    7.1347 H       2  APM222      0.2713
     17 ****       -0.5394   -8.0340    6.5761 H       2  APM222      0.2967
     18 ****        0.9447  -10.9245    9.0203 H       2  APM222      0.2980
     19 ****       -0.7437  -11.0076    8.4930 H       2  APM222      0.2718
     20 ****        7.7163   -6.3416    8.1650 H       3  PIP333      0.0903
     21 ****        7.9798   -7.8642    9.0119 H       3  PIP333      0.0973
     22 C          10.1710   -6.2818    9.3225 C.2     4  CO244       0.3025
     23 ****        8.8419   -6.6626   10.9983 H       3  PIP333      0.1109
     24 ****        8.5097   -4.0994    9.3241 H       3  PIP333      0.1076
     25 ****        9.2954   -4.2203   10.9255 H       3  PIP333      0.1035
     26 ****        6.9073   -3.4784   11.1706 H       3  PIP333      0.1007
     27 ****        7.1400   -5.1016   11.9010 H       3  PIP333      0.0972
     28 ****        5.0812   -5.0326   10.5830 H       3  PIP333      0.1235
     29 ****        5.9727   -4.6062    9.1038 H       3  PIP333      0.0791
     30 S           5.7075  -10.2604   12.4768 S.O2    1  TOS111      2.5855
     31 O1          6.7856  -11.0812   11.9715 O.2     1  TOS111     -0.8705
     32 O2          4.7083  -10.9096   13.3038 O.2     1  TOS111     -0.8600
     33 C1          6.2832   -8.7498   13.3243 C.ar    1  TOS111     -0.6857
     34 C2          5.3401   -7.7850   13.7415 C.ar    1  TOS111      0.0458
     35 C3          5.7812   -6.5574   14.2551 C.ar    1  TOS111     -0.1565
     36 C4          7.1298   -6.2972   14.4912 C.ar    1  TOS111     -0.0038
     37 C5          8.0517   -7.2396   14.0309 C.ar    1  TOS111     -0.1560
     38 C6          7.6483   -8.5139   13.6055 C.ar    1  TOS111      0.0318
     39 C39         8.3238   -5.4382   16.5611 C.3     1  TOS111     -0.2064
     40 C           5.5382   -7.5305   10.0848 C.2     2  APM222      0.2704
     41 CA          5.7586   -9.0161    9.9527 C.3     2  APM222      0.0447
     42 CB          5.3819   -9.4887    8.5210 C.3     2  APM222     -0.1232
     43 CG          4.0990   -8.7857    8.0455 C.ar    2  APM222     -0.0503
     44 CD1         2.8513   -9.4217    8.1004 C.ar    2  APM222     -0.0748
     45 CD2         4.1758   -7.4782    7.5547 C.ar    2  APM222     -0.0535
     46 CE1         1.6802   -8.7279    7.7751 C.ar    2  APM222     -0.1487
     47 CE2         3.0104   -6.7613    7.2758 C.ar    2  APM222     -0.1009
     48 CZ          1.7650   -7.3761    7.4206 C.ar    2  APM222     -0.0877
     49 CF          0.3265   -9.4173    7.7970 C.3     2  APM222      0.3323
     50 O           4.4194   -7.2615   10.4843 O.2     2  APM222     -0.3816
     51 N           4.9304   -9.6436   10.9774 N.3     2  APM222     -0.8187
     52 NG1        -0.6703   -8.8928    7.1303 N.3     2  APM222     -0.3278
     53 NG2         0.1670  -10.5238    8.4768 N.3     2  APM222     -0.3247
     54 N1          6.4263   -6.5415    9.7866 N.am    3  PIP333     -0.3334
     55 C2          7.7252   -6.8083    9.1624 C.3     3  PIP333     -0.0066
     56 C3          8.8352   -6.1502   10.0220 C.3     3  PIP333     -0.1595
     57 C4          8.5169   -4.6556   10.2759 C.3     3  PIP333     -0.1412
     58 C5          7.1340   -4.5358   10.9565 C.3     3  PIP333     -0.1873
     59 C6          6.0420   -5.1535   10.0563 C.3     3  PIP333     -0.0153
     60 ****        6.6658   -4.4817   15.6063 H       1  TOS111      0.0951
     61 C64         2.8956   -6.8330   13.2619 C.3     1  TOS111     -0.2060
     62 C65         3.4079   -8.3617   15.2029 C.3     1  TOS111     -0.2062
     63 ****        8.3618  -10.6021   13.4434 H       1  TOS111      0.1188
     64 C67         9.6327   -9.6766   14.7991 C.3     1  TOS111     -0.2070
     65 C68         9.6869   -9.3177   12.2953 C.3     1  TOS111     -0.1982
     66 ****        9.3119   -4.5049   14.0331 H       1  TOS111      0.0772
     67 ****        8.6986   -3.1722   15.0501 H       1  TOS111      0.0860
     68 ****        7.8070   -3.6395   13.5945 H       1  TOS111      0.0733
     69 ****        7.6941   -6.0983   17.1782 H       1  TOS111      0.0820
     70 ****        8.5760   -4.5464   17.1569 H       1  TOS111      0.0846
     71 ****        9.2573   -5.9673   16.3191 H       1  TOS111      0.0777
     72 ****        2.9196   -5.9573   13.9235 H       1  TOS111      0.0745
     73 ****        1.8474   -7.1718   13.2326 H       1  TOS111      0.0678
     74 ****        3.1553   -6.4925   12.2556 H       1  TOS111      0.0950
     75 ****        3.9972   -9.2177   15.5657 H       1  TOS111      0.0936
     76 ****        2.3393   -8.6176   15.2715 H       1  TOS111      0.0799
     77 ****        3.6008   -7.5023   15.8646 H       1  TOS111      0.0773
     78 ****       10.1833   -8.7510   15.0172 H       1  TOS111      0.0756
     79 ****       10.3792  -10.4812   14.6923 H       1  TOS111      0.0857
     80 ****        8.9895   -9.9103   15.6606 H       1  TOS111      0.0829
     81 ****        9.0878   -9.2005   11.3820 H       1  TOS111      0.0599
     82 ****       10.4171  -10.1277   12.1359 H       1  TOS111      0.0952
     83 ****       10.2414   -8.3911   12.4955 H       1  TOS111      0.0699
     84 O          10.6248   -5.3204    8.7231 O.2     4  CO244      -0.3539
     85 N          10.8132   -7.4679    9.3787 N.am    4  CO244      -0.3904
     86 C          12.4556   -9.1597    8.8593 C.ar    5  PHENYL55   -0.1191
     87 C93        12.0473   -7.6949    8.6400 C.3     4  CO244       0.0303
     88 ****       13.5701   -8.7379   10.6582 H       5  PHENYL55    0.1363
     89 ****       12.8331   -7.0146    9.0022 H       4  CO244       0.1063
     90 ****       11.8876   -7.5036    7.5671 H       4  CO244       0.0997
     91 C          13.2432   -9.5042    9.9627 C.ar    5  PHENYL55   -0.1144
     92 C          13.6037  -10.8364   10.1829 C.ar    5  PHENYL55   -0.1282
     93 C          13.1741  -11.8305    9.2996 C.ar    5  PHENYL55   -0.1149
     94 C          12.3820  -11.4922    8.1985 C.ar    5  PHENYL55   -0.1298
     95 C          12.0215  -10.1595    7.9810 C.ar    5  PHENYL55   -0.1169
     96 ****       14.2148  -11.0980   11.0414 H       5  PHENYL55    0.1390
     97 ****       13.4539  -12.8651    9.4699 H       5  PHENYL55    0.1382
     98 ****       12.0447  -12.2653    7.5143 H       5  PHENYL55    0.1359
     99 ****       11.3949   -9.9062    7.1316 H       5  PHENYL55    0.1296
    100 ****       10.4535   -8.2208    9.9168 H       4  CO244       0.2324
@<TRIPOS>BOND
     1    34     1    1
     2    35     2    1
     3    36     3    1
     4    38     4    1
     5    37     5    1
     6     1     6    1
     7     3     7    1
     8    41     8    1
     9    42     9    1
    10    42    10    1
    11    44    11    1
    12    45    12    1
    13    47    13    1
    14    48    14    1
    15    51    15    1
    16    52    16    1
    17    52    17    1
    18    53    18    1
    19    53    19    1
    20    55    20    1
    21    55    21    1
    22    22    84    2
    23    56    23    1
    24    57    24    1
    25    57    25    1
    26    58    26    1
    27    58    27    1
    28    59    28    1
    29    59    29    1
    30    30    33    1
    31    30    32    2
    32    30    31    2
    33    33    38   ar
    34    33    34   ar
    35    34    35   ar
    36    35    36   ar
    37     3    39    1
    38    36    37   ar
    39    37    38   ar
    40    40    50    2
    41    40    41    1
    42    41    51    1
    43    41    42    1
    44    42    43    1
    45    43    45   ar
    46    43    44   ar
    47    44    46   ar
    48    46    49    1
    49    46    48   ar
    50    48    47   ar
    51    47    45   ar
    52    49    53    1
    53    49    52    1
    54    59    54    1
    55    54    55    1
    56    55    56    1
    57    56    57    1
    58    57    58    1
    59    58    59    1
    60    40    54   am
    61    51    30    1
    62     3    60    1
    63     1    61    1
    64     1    62    1
    65     4    63    1
    66     4    64    1
    67     4    65    1
    68     7    66    1
    69     7    67    1
    70     7    68    1
    71    39    69    1
    72    39    70    1
    73    39    71    1
    74    61    72    1
    75    61    73    1
    76    61    74    1
    77    62    75    1
    78    62    76    1
    79    62    77    1
    80    64    78    1
    81    64    79    1
    82    64    80    1
    83    65    81    1
    84    65    82    1
    85    65    83    1
    86    22    85   am
    87    56    22    1
    88    86    91   ar
    89    85    87    1
    90    87    86    1
    91    87    89    1
    92    87    90    1
    93    86    95   ar
    94    95    94   ar
    95    94    93   ar
    96    93    92   ar
    97    92    91   ar
    98    91    88    1
    99    92    96    1
   100    93    97    1
   101    94    98    1
   102    95    99    1
   103    85   100    1
