@<TRIPOS>MOLECULE
CPD_63-b
 52 54 0 0 0
SMALL
GASTEIGER

@<TRIPOS>ATOM
      1 C1          3.9017   -6.3689   15.3015 C.ar    3  NAPHTHALENE33   -0.1000
      2 C2          4.0651   -5.1527   15.9702 C.ar    3  NAPHTHALENE33   -0.1309
      3 C3          5.3309   -4.5692   16.0556 C.ar    3  NAPHTHALENE33   -0.0989
      4 C4          6.4304   -5.2058   15.4719 C.ar    3  NAPHTHALENE33   -0.1348
      5 ****        6.7637   -9.2323   10.3891 H       2  APM222      0.1270
      6 ****        5.2757  -10.4701    8.6344 H       2  APM222      0.1178
      7 ****        6.1774   -9.0624    8.0627 H       2  APM222      0.1112
      8 ****        2.8046  -10.3853    8.5085 H       2  APM222      0.1345
      9 ****        5.1111   -6.8505    7.7431 H       2  APM222      0.1613
     10 ****        3.0710   -5.6661    7.0268 H       2  APM222      0.1653
     11 ****        0.8737   -6.7602    7.1990 H       2  APM222      0.1356
     12 ****        3.9891   -9.9999   10.9927 H       2  APM222      0.2292
     13 ****       -1.5794   -9.3658    7.0614 H       2  APM222      0.2734
     14 ****       -0.5272   -8.0621    6.4988 H       2  APM222      0.2957
     15 ****        0.8934  -10.8628    9.0866 H       2  APM222      0.2969
     16 ****       -0.7598  -10.9792    8.4711 H       2  APM222      0.2737
     17 N17         6.2805   -6.6305   10.1234 N.am    2  APM222     -0.3903
     18 ****        7.0990   -6.8708    9.5980 H       2  APM222      0.2349
     19 C19         6.0528   -5.2162   10.4031 C.3     2  APM222     -0.0776
     20 ****        6.9020   -4.8071   10.9730 H       2  APM222      0.0860
     21 ****        5.1332   -5.0470   10.9859 H       2  APM222      0.1189
     22 ****        5.9665   -4.6620    9.4548 H       2  APM222      0.0654
     23 S           5.7069  -10.4202   12.6246 S.O2    1  TOS111      2.6400
     24 O1          7.0012  -10.9965   12.3138 O.2     1  TOS111     -0.8685
     25 O2          4.7302  -11.2050   13.3489 O.2     1  TOS111     -0.8700
     26 C5          7.3654   -7.0644   14.2084 C.ar    3  NAPHTHALENE33   -0.1298
     27 C6          7.2015   -8.2821   13.5418 C.ar    3  NAPHTHALENE33   -0.0640
     28 C7          5.9390   -8.8758   13.4707 C.ar    3  NAPHTHALENE33   -0.7369
     29 C8          4.8410   -8.2302   14.0457 C.ar    3  NAPHTHALENE33    0.0339
     30 C9          4.9995   -7.0099   14.7136 C.ar    3  NAPHTHALENE33   -0.0545
     31 C10         6.2697   -6.4237   14.7994 C.ar    3  NAPHTHALENE33    0.0103
     32 H1          2.9119   -6.8096   15.2430 H       3  NAPHTHALENE33    0.1356
     33 C           5.4108   -7.5771   10.5503 C.2     2  APM222      0.2818
     34 CA          5.6976   -9.0200   10.2114 C.3     2  APM222      0.0293
     35 CB          5.3613   -9.3773    8.7324 C.3     2  APM222     -0.1219
     36 CG          4.0793   -8.6834    8.2411 C.ar    2  APM222     -0.0580
     37 CD1         2.8420   -9.3414    8.2207 C.ar    2  APM222     -0.0736
     38 CD2         4.1560   -7.3632    7.7877 C.ar    2  APM222     -0.0580
     39 CE1         1.6723   -8.6770    7.8236 C.ar    2  APM222     -0.1448
     40 CE2         3.0021   -6.6894    7.3844 C.ar    2  APM222     -0.1055
     41 CZ          1.7626   -7.3316    7.4451 C.ar    2  APM222     -0.0851
     42 CF          0.3268   -9.3874    7.7968 C.3     2  APM222      0.3352
     43 O           4.4057   -7.3249   11.1973 O.2     2  APM222     -0.3573
     44 N           4.9642   -9.8449   11.1569 N.3     2  APM222     -0.8349
     45 NG1        -0.6563   -8.9044    7.0766 N.3     2  APM222     -0.3283
     46 NG2         0.1442  -10.4818    8.4928 N.3     2  APM222     -0.3249
     47 H2          3.2106   -4.6611   16.4229 H       3  NAPHTHALENE33    0.1404
     48 H3          5.4600   -3.6241   16.5773 H       3  NAPHTHALENE33    0.1421
     49 H4          7.4081   -4.7406   15.5482 H       3  NAPHTHALENE33    0.1409
     50 H5          8.3547   -6.6215   14.2647 H       3  NAPHTHALENE33    0.1418
     51 H6          8.0569   -8.7681   13.0800 H       3  NAPHTHALENE33    0.1489
     52 H8          3.8623   -8.6917   13.9649 H       3  NAPHTHALENE33    0.1417
@<TRIPOS>BOND
     1    23    28    1
     2    26    27   ar
     3    26    31   ar
     4    26    50    1
     5    31     4   ar
     6    31    30   ar
     7    30     1   ar
     8    34     5    1
     9    35     6    1
    10    35     7    1
    11    37     8    1
    12    38     9    1
    13    40    10    1
    14    41    11    1
    15    44    12    1
    16    45    13    1
    17    45    14    1
    18    46    15    1
    19    46    16    1
    20    33    17   am
    21    17    18    1
    22    17    19    1
    23    19    20    1
    24    19    21    1
    25    19    22    1
    26    30    29   ar
    27    23    25    2
    28    23    24    2
    29    29    28   ar
    30    29    52    1
    31    28    27   ar
    32    27    51    1
    33     1     2   ar
    34     1    32    1
    35    33    43    2
    36    33    34    1
    37    34    44    1
    38    34    35    1
    39    35    36    1
    40    36    38   ar
    41    36    37   ar
    42    37    39   ar
    43    39    42    1
    44    39    41   ar
    45    41    40   ar
    46    40    38   ar
    47    42    46    1
    48    42    45    1
    49    44    23    1
    50     2     3   ar
    51     2    47    1
    52     3     4   ar
    53     3    48    1
    54     4    49    1
