@<TRIPOS>MOLECULE
CPD_33-b
 89 91 0 0 0
SMALL
GASTEIGER

@<TRIPOS>ATOM
      1 C1          3.8472   -8.0047   13.7901 C.3     1  TOS111     -0.0712
      2 ****        5.1195   -5.7535   14.5175 H       1  TOS111      0.1399
      3 C3          7.6389   -4.9849   15.1782 C.3     1  TOS111     -0.0750
      4 C4          8.8075   -9.5147   13.4018 C.3     1  TOS111     -0.0905
      5 ****        9.1336   -6.9215   13.8975 H       1  TOS111      0.1450
      6 ****        3.5640   -8.8128   13.1047 H       1  TOS111      0.0826
      7 C7          8.4804   -4.0242   14.3002 C.3     1  TOS111     -0.2098
      8 ****        6.7820   -9.3112   10.1264 H       2  APM222      0.1267
      9 ****        5.2482  -10.6100    8.4982 H       2  APM222      0.1185
     10 ****        6.1795   -9.2876    7.7681 H       2  APM222      0.1101
     11 ****        2.8058  -10.5378    8.2156 H       2  APM222      0.1356
     12 ****        5.1224   -7.0584    7.3175 H       2  APM222      0.1606
     13 ****        3.0501   -5.7321    7.0260 H       2  APM222      0.1641
     14 ****        0.8546   -6.7585    7.5050 H       2  APM222      0.1355
     15 ****        3.9422   -9.6848   10.8133 H       2  APM222      0.2319
     16 ****       -1.6464   -9.2806    7.2208 H       2  APM222      0.2717
     17 ****       -0.5897   -7.9462    6.7307 H       2  APM222      0.2967
     18 ****        0.9439  -11.0384    8.8848 H       2  APM222      0.2980
     19 ****       -0.7634  -11.0607    8.4134 H       2  APM222      0.2726
     20 ****        7.6641   -6.3760    8.0396 H       3  PIP333      0.0771
     21 ****        7.9571   -7.8807    8.9154 H       3  PIP333      0.1034
     22 ****        9.8014   -6.2473    9.3141 H       3  PIP333      0.1045
     23 ****        8.9291   -6.6375   10.8255 H       3  PIP333      0.1108
     24 ****        8.3979   -4.1605    9.0859 H       3  PIP333      0.1207
     25 C           9.6485   -3.9081   10.7558 C.2     4  CO244       0.3049
     26 ****        6.9409   -3.4651   11.0491 H       3  PIP333      0.1087
     27 ****        7.2264   -5.0798   11.7843 H       3  PIP333      0.1120
     28 ****        5.0971   -5.0152   10.5241 H       3  PIP333      0.1300
     29 ****        5.9515   -4.6125    9.0183 H       3  PIP333      0.0774
     30 S           5.7202  -10.2286   12.4353 S.O2    1  TOS111      2.5998
     31 O1          6.7974  -11.0460   11.9382 O.2     1  TOS111     -0.8742
     32 O2          4.7294  -10.8711   13.2707 O.2     1  TOS111     -0.8648
     33 C1          6.3074   -8.7123   13.2794 C.ar    1  TOS111     -0.6851
     34 C2          5.3760   -7.7557   13.7366 C.ar    1  TOS111      0.0444
     35 C3          5.8208   -6.5243   14.2368 C.ar    1  TOS111     -0.1582
     36 C4          7.1782   -6.2531   14.4215 C.ar    1  TOS111     -0.0072
     37 C5          8.0894   -7.1917   13.9360 C.ar    1  TOS111     -0.1542
     38 C6          7.6767   -8.4647   13.5209 C.ar    1  TOS111      0.0306
     39 C39         8.4272   -5.4075   16.4459 C.3     1  TOS111     -0.2062
     40 C           5.5404   -7.5240   10.0575 C.2     2  APM222      0.2727
     41 CA          5.7509   -9.0127    9.9023 C.3     2  APM222      0.0421
     42 CB          5.3720   -9.5171    8.4793 C.3     2  APM222     -0.1201
     43 CG          4.0871   -8.8284    7.9960 C.ar    2  APM222     -0.0535
     44 CD1         2.8441   -9.4730    8.0219 C.ar    2  APM222     -0.0741
     45 CD2         4.1595   -7.5141    7.5257 C.ar    2  APM222     -0.0570
     46 CE1         1.6594   -8.7520    7.7924 C.ar    2  APM222     -0.1525
     47 CE2         2.9908   -6.7730    7.3316 C.ar    2  APM222     -0.1024
     48 CZ          1.7477   -7.3746    7.5404 C.ar    2  APM222     -0.0860
     49 CF          0.3046   -9.4308    7.8072 C.3     2  APM222      0.3348
     50 O           4.4536   -7.2485   10.5368 O.2     2  APM222     -0.3787
     51 N           4.9364   -9.6327   10.9437 N.3     2  APM222     -0.8231
     52 NG1        -0.7105   -8.8462    7.2200 N.3     2  APM222     -0.3291
     53 NG2         0.1530  -10.5865    8.4025 N.3     2  APM222     -0.3249
     54 N1          6.4180   -6.5446    9.7102 N.am    3  PIP333     -0.3358
     55 C2          7.6983   -6.8220    9.0473 C.3     3  PIP333     -0.0145
     56 C3          8.8407   -6.1432    9.8463 C.3     3  PIP333     -0.1744
     57 C4          8.5176   -4.6420   10.0732 C.3     3  PIP333     -0.1130
     58 C5          7.1717   -4.5239   10.8348 C.3     3  PIP333     -0.1715
     59 C6          6.0456   -5.1496    9.9774 C.3     3  PIP333     -0.0132
     60 O           9.8674   -2.7380   10.4773 O.2     4  CO244      -0.3418
     61 O          10.3685   -4.6032   11.6481 O.3     4  CO244      -0.2508
     62 ****       11.6097   -3.9931   12.0623 C.3     4  CO244      -0.0751
     63 ****        6.7619   -4.4127   15.5250 H       1  TOS111      0.0953
     64 C64         2.9201   -6.8127   13.3954 C.3     1  TOS111     -0.2049
     65 C65         3.5267   -8.4375   15.2466 C.3     1  TOS111     -0.2048
     66 ****        8.4033  -10.5311   13.3663 H       1  TOS111      0.1159
     67 C67         9.6889   -9.5905   14.6828 C.3     1  TOS111     -0.2058
     68 C68         9.6765   -9.2509   12.1418 C.3     1  TOS111     -0.1931
     69 ****        9.3140   -4.5603   13.8272 H       1  TOS111      0.0834
     70 ****        8.9052   -3.2050   14.8959 H       1  TOS111      0.0850
     71 ****        7.8404   -3.5859   13.5258 H       1  TOS111      0.0713
     72 ****        7.8063   -6.0771   17.0596 H       1  TOS111      0.0818
     73 ****        8.6866   -4.5221   17.0443 H       1  TOS111      0.0830
     74 ****        9.3564   -5.9321   16.1796 H       1  TOS111      0.0778
     75 ****        2.9313   -5.9856   14.1189 H       1  TOS111      0.0750
     76 ****        1.8751   -7.1644   13.3472 H       1  TOS111      0.0678
     77 ****        3.1846   -6.4083   12.4094 H       1  TOS111      0.0915
     78 ****        4.1574   -9.2909   15.5427 H       1  TOS111      0.0941
     79 ****        2.4695   -8.7307   15.3484 H       1  TOS111      0.0797
     80 ****        3.7256   -7.6049   15.9409 H       1  TOS111      0.0769
     81 ****       10.2758   -8.6786   14.8563 H       1  TOS111      0.0743
     82 ****       10.4027  -10.4278   14.6030 H       1  TOS111      0.0853
     83 ****        9.0487   -9.7661   15.5621 H       1  TOS111      0.0818
     84 ****        9.0390   -9.1957   11.2458 H       1  TOS111      0.0623
     85 ****       10.4085  -10.0627   11.9977 H       1  TOS111      0.0885
     86 ****       10.2329   -8.3052   12.2358 H       1  TOS111      0.0741
     87 ****       12.3969   -4.2517   11.3399 H       4  CO244       0.0821
     88 ****       11.8770   -4.4355   13.0283 H       4  CO244       0.0991
     89 ****       11.5817   -2.9001   12.1851 H       4  CO244       0.1071
@<TRIPOS>BOND
     1    34     1    1
     2    35     2    1
     3    36     3    1
     4    38     4    1
     5    37     5    1
     6     1     6    1
     7     3     7    1
     8    41     8    1
     9    42     9    1
    10    42    10    1
    11    44    11    1
    12    45    12    1
    13    47    13    1
    14    48    14    1
    15    51    15    1
    16    52    16    1
    17    52    17    1
    18    53    18    1
    19    53    19    1
    20    55    20    1
    21    55    21    1
    22    56    22    1
    23    56    23    1
    24    57    24    1
    25    25    60    2
    26    58    26    1
    27    58    27    1
    28    59    28    1
    29    59    29    1
    30    30    33    1
    31    30    32    2
    32    30    31    2
    33    33    38   ar
    34    33    34   ar
    35    34    35   ar
    36    35    36   ar
    37     3    39    1
    38    36    37   ar
    39    37    38   ar
    40    40    50    2
    41    40    41    1
    42    41    51    1
    43    41    42    1
    44    42    43    1
    45    43    45   ar
    46    43    44   ar
    47    44    46   ar
    48    46    49    1
    49    46    48   ar
    50    48    47   ar
    51    47    45   ar
    52    49    53    1
    53    49    52    1
    54    59    54    1
    55    54    55    1
    56    55    56    1
    57    56    57    1
    58    57    58    1
    59    58    59    1
    60    40    54   am
    61    51    30    1
    62    25    61    1
    63    57    25    1
    64    61    62    1
    65     3    63    1
    66     1    64    1
    67     1    65    1
    68     4    66    1
    69     4    67    1
    70     4    68    1
    71     7    69    1
    72     7    70    1
    73     7    71    1
    74    39    72    1
    75    39    73    1
    76    39    74    1
    77    64    75    1
    78    64    76    1
    79    64    77    1
    80    65    78    1
    81    65    79    1
    82    65    80    1
    83    67    81    1
    84    67    82    1
    85    67    83    1
    86    68    84    1
    87    68    85    1
    88    68    86    1
    89    62    87    1
    90    62    88    1
    91    62    89    1
