@<TRIPOS>MOLECULE
CPD_15-b
 62 64 0 0 0
SMALL
GASTEIGER

@<TRIPOS>ATOM
      1 ****        3.8726   -8.6955   14.0680 H       1  TOS111      0.1404
      2 ****        4.0703   -6.5360   15.2431 H       1  TOS111      0.1409
      3 ****        8.2813   -6.4678   14.3971 H       1  TOS111      0.1405
      4 ****        8.0781   -8.6305   13.2189 H       1  TOS111      0.1482
      5 ****        6.3181   -4.9483   15.5430 C.3     1  TOS111     -0.1825
      6 ****        5.3550   -4.5825   15.9262 H       1  TOS111      0.0895
      7 ****        6.6963   -4.2182   14.8168 H       1  TOS111      0.0879
      8 ****        6.7591   -9.2883   10.4337 H       2  APM222      0.1265
      9 ****        5.2320  -10.4540    8.6687 H       2  APM222      0.1133
     10 ****        6.1556   -9.0737    8.0997 H       2  APM222      0.1118
     11 ****        2.7892  -10.3130    8.5693 H       2  APM222      0.1330
     12 ****        5.1088   -6.8165    7.7481 H       2  APM222      0.1655
     13 ****        3.1013   -5.6839    6.8883 H       2  APM222      0.1644
     14 ****        0.9061   -6.7482    7.0353 H       2  APM222      0.1366
     15 ****        4.0292  -10.0745   11.0541 H       2  APM222      0.2323
     16 ****       -1.5631   -9.5201    6.9290 H       2  APM222      0.2742
     17 ****       -0.5058   -8.2994    6.2256 H       2  APM222      0.2927
     18 ****        0.7211  -10.6424    9.3096 H       2  APM222      0.2944
     19 ****       -0.8564  -10.8645    8.5591 H       2  APM222      0.2739
     20 ****        7.5650   -6.2714    8.4253 H       3  PIP333      0.0814
     21 ****        7.8218   -7.8503    9.1853 H       3  PIP333      0.0978
     22 ****        9.6688   -6.3264    9.7663 H       3  PIP333      0.0971
     23 ****        8.7501   -6.7956   11.2215 H       3  PIP333      0.0926
     24 ****        8.4308   -4.1568    9.6561 H       3  PIP333      0.0859
     25 C25         9.5586   -4.1284   11.5009 C.3     3  PIP333     -0.2065
     26 ****        6.8205   -3.5109   11.4729 H       3  PIP333      0.0946
     27 ****        7.0159   -5.1151   12.2220 H       3  PIP333      0.0974
     28 ****        4.9468   -5.0389   10.8519 H       3  PIP333      0.1247
     29 ****        5.8822   -4.5955    9.4165 H       3  PIP333      0.0728
     30 S           5.7522  -10.3454   12.6842 S.O2    1  TOS111      2.6428
     31 O1          7.0620  -10.8857   12.3710 O.2     1  TOS111     -0.8766
     32 O2          4.8276  -11.1687   13.4419 O.2     1  TOS111     -0.8701
     33 C1          5.9538   -8.8030   13.5493 C.ar    1  TOS111     -0.7328
     34 C2          4.8367   -8.2033   14.1320 C.ar    1  TOS111     -0.0064
     35 C3          4.9513   -6.9758   14.7899 C.ar    1  TOS111     -0.1429
     36 C4          6.1845   -6.3209   14.8665 C.ar    1  TOS111     -0.0103
     37 C5          7.3103   -6.9425   14.3137 C.ar    1  TOS111     -0.1544
     38 C6          7.1975   -8.1703   13.6531 C.ar    1  TOS111     -0.0310
     39 ****        7.0244   -5.0094   16.3857 H       1  TOS111      0.0981
     40 C           5.4695   -7.5601   10.5171 C.2     2  APM222      0.2740
     41 CA          5.7108   -9.0294   10.2471 C.3     2  APM222      0.0428
     42 CB          5.3327   -9.3647    8.7657 C.3     2  APM222     -0.1209
     43 CG          4.0631   -8.6436    8.2512 C.ar    2  APM222     -0.0566
     44 CD1         2.8154   -9.2852    8.2330 C.ar    2  APM222     -0.0757
     45 CD2         4.1563   -7.3326    7.7679 C.ar    2  APM222     -0.0537
     46 CE1         1.6428   -8.6506    7.7835 C.ar    2  APM222     -0.1429
     47 CE2         3.0150   -6.6868    7.2967 C.ar    2  APM222     -0.1119
     48 CZ          1.7675   -7.3236    7.3479 C.ar    2  APM222     -0.0805
     49 CF          0.2984   -9.3742    7.7662 C.3     2  APM222      0.3417
     50 O           4.4540   -7.3258   11.1453 O.2     2  APM222     -0.3613
     51 N           4.9906   -9.8367   11.2330 N.3     2  APM222     -0.8399
     52 NG1        -0.6478   -9.0420    6.9202 N.3     2  APM222     -0.3300
     53 NG2         0.0412  -10.3568    8.5973 N.3     2  APM222     -0.3276
     54 N1          6.2952   -6.5488   10.0848 N.am    3  PIP333     -0.3427
     55 C2          7.5688   -6.7977    9.3964 C.3     3  PIP333     -0.0205
     56 C3          8.7017   -6.2165   10.2857 C.3     3  PIP333     -0.1757
     57 C4          8.4304   -4.7226   10.6066 C.3     3  PIP333     -0.1039
     58 C5          7.0344   -4.5702   11.2698 C.3     3  PIP333     -0.1769
     59 C6          5.9265   -5.1627   10.3643 C.3     3  PIP333     -0.0136
     60 ****       10.5406   -4.2243   11.0040 H       3  PIP333      0.0816
     61 ****        9.6088   -4.6501   12.4694 H       3  PIP333      0.0752
     62 ****        9.3780   -3.0564   11.6914 H       3  PIP333      0.0810
@<TRIPOS>BOND
     1    34     1    1
     2    35     2    1
     3    37     3    1
     4    38     4    1
     5    36     5    1
     6     5     6    1
     7     5     7    1
     8    41     8    1
     9    42     9    1
    10    42    10    1
    11    44    11    1
    12    45    12    1
    13    47    13    1
    14    48    14    1
    15    51    15    1
    16    52    16    1
    17    52    17    1
    18    53    18    1
    19    53    19    1
    20    55    20    1
    21    55    21    1
    22    56    22    1
    23    56    23    1
    24    57    24    1
    25    57    25    1
    26    58    26    1
    27    58    27    1
    28    59    28    1
    29    59    29    1
    30    30    33    1
    31    30    32    2
    32    30    31    2
    33    33    38   ar
    34    33    34   ar
    35    34    35   ar
    36    35    36   ar
    37     5    39    1
    38    36    37   ar
    39    37    38   ar
    40    40    50    2
    41    40    41    1
    42    41    51    1
    43    41    42    1
    44    42    43    1
    45    43    45   ar
    46    43    44   ar
    47    44    46   ar
    48    46    49    1
    49    46    48   ar
    50    48    47   ar
    51    47    45   ar
    52    49    53    1
    53    49    52    1
    54    59    54    1
    55    54    55    1
    56    55    56    1
    57    56    57    1
    58    57    58    1
    59    58    59    1
    60    40    54   am
    61    51    30    1
    62    25    60    1
    63    25    61    1
    64    25    62    1
