@<TRIPOS>MOLECULE
CPD_70-b
 47 49 0 0 0
SMALL
GASTEIGER

@<TRIPOS>ATOM
      1 C1          5.4201   -4.8870   14.5879 C.ar    3  NAPHTHALENE33   -0.0913
      2 C2          6.2278   -3.8993   15.1574 C.ar    3  NAPHTHALENE33   -0.1486
      3 C3          7.5713   -4.1694   15.4311 C.ar    3  NAPHTHALENE33   -0.1154
      4 C4          8.1034   -5.4286   15.1332 C.ar    3  NAPHTHALENE33   -0.1308
      5 ****        6.4190   -9.7649   10.5777 H       2  APM222      0.1142
      6 ****        5.2204  -10.4596    8.6433 H       2  APM222      0.0696
      7 ****        6.2112   -9.1008    8.0848 H       2  APM222      0.1262
      8 ****        2.8402  -10.3606    8.4638 H       2  APM222      0.1283
      9 ****        5.1381   -6.8153    7.7621 H       2  APM222      0.1948
     10 ****        3.0828   -5.6430    7.0286 H       2  APM222      0.1564
     11 ****        0.8976   -6.7070    7.2520 H       2  APM222      0.1182
     12 ****        3.6856   -8.5855   10.7845 H       2  APM222      0.2194
     13 ****       -1.6095   -9.3698    7.1063 H       2  APM222      0.2605
     14 ****       -0.5895   -8.0637    6.5268 H       2  APM222      0.2873
     15 ****        0.8496  -10.8854    9.0597 H       2  APM222      0.2966
     16 ****       -0.7887  -10.9755    8.4335 H       2  APM222      0.2611
     17 O17         7.5906   -7.6002   10.0445 O.co2   2  APM222     -0.5489
     18 S           4.6176   -9.6480   12.7128 S.O2    1  TOS111      2.6380
     19 O1          5.3116  -10.9206   12.6987 O.2     1  TOS111     -0.9013
     20 O2          3.3026   -9.5541   13.3150 O.2     1  TOS111     -0.9222
     21 C5          7.8236   -7.6795   14.2574 C.ar    3  NAPHTHALENE33   -0.1313
     22 C6          7.0133   -8.6669   13.6893 C.ar    3  NAPHTHALENE33   -0.0340
     23 C7          5.6656   -8.4055   13.4325 C.ar    3  NAPHTHALENE33   -0.7055
     24 C8          5.1420   -7.1419   13.7196 C.ar    3  NAPHTHALENE33    0.0454
     25 C9          5.9486   -6.1480   14.2884 C.ar    3  NAPHTHALENE33   -0.0437
     26 C10         7.2969   -6.4195   14.5603 C.ar    3  NAPHTHALENE33    0.0216
     27 H1          4.3780   -4.6625   14.3817 H       3  NAPHTHALENE33    0.1277
     28 C           6.3645   -7.6753   10.3308 C.2     2  APM222      0.2965
     29 CA          5.6923   -9.0205   10.2102 C.3     2  APM222     -0.0223
     30 CB          5.3583   -9.3697    8.7308 C.3     2  APM222     -0.1107
     31 CG          4.0922   -8.6522    8.2287 C.ar    2  APM222     -0.0310
     32 CD1         2.8541   -9.3111    8.1950 C.ar    2  APM222     -0.0919
     33 CD2         4.1796   -7.3271    7.7921 C.ar    2  APM222     -0.0150
     34 CE1         1.6666   -8.6581    7.8229 C.ar    2  APM222     -0.1644
     35 CE2         3.0193   -6.6643    7.3944 C.ar    2  APM222     -0.1233
     36 CZ          1.7765   -7.3034    7.4703 C.ar    2  APM222     -0.1025
     37 CF          0.3172   -9.3746    7.7988 C.3     2  APM222      0.3455
     38 O           5.6823   -6.6919   10.7219 O.co2   2  APM222     -0.5669
     39 N           4.5245   -9.0411   11.0831 N.3     2  APM222     -0.8233
     40 NG1        -0.6900   -8.9030    7.1026 N.3     2  APM222     -0.3428
     41 NG2         0.1167  -10.4831    8.4712 N.3     2  APM222     -0.3331
     42 H2          5.8137   -2.9227   15.3888 H       3  NAPHTHALENE33    0.1243
     43 H3          8.2004   -3.4040   15.8743 H       3  NAPHTHALENE33    0.1248
     44 H4          9.1481   -5.6248   15.3519 H       3  NAPHTHALENE33    0.1304
     45 H5          8.8667   -7.9040   14.4607 H       3  NAPHTHALENE33    0.1325
     46 H6          7.4351   -9.6373   13.4490 H       3  NAPHTHALENE33    0.1455
     47 H8          4.0998   -6.9406   13.4950 H       3  NAPHTHALENE33    0.1358
@<TRIPOS>BOND
     1    18    23    1
     2    21    22   ar
     3    21    26   ar
     4    21    45    1
     5    26     4   ar
     6    26    25   ar
     7    25     1   ar
     8    29     5    1
     9    30     6    1
    10    30     7    1
    11    32     8    1
    12    33     9    1
    13    35    10    1
    14    36    11    1
    15    39    12    1
    16    40    13    1
    17    40    14    1
    18    41    15    1
    19    41    16    1
    20    28    17   ar
    21    25    24   ar
    22    18    20    2
    23    18    19    2
    24    24    23   ar
    25    24    47    1
    26    23    22   ar
    27    22    46    1
    28     1     2   ar
    29     1    27    1
    30    28    38   ar
    31    28    29    1
    32    29    39    1
    33    29    30    1
    34    30    31    1
    35    31    33   ar
    36    31    32   ar
    37    32    34   ar
    38    34    37    1
    39    34    36   ar
    40    36    35   ar
    41    35    33   ar
    42    37    41    1
    43    37    40    1
    44    39    18    1
    45     2     3   ar
    46     2    42    1
    47     3     4   ar
    48     3    43    1
    49     4    44    1
