@<TRIPOS>MOLECULE
CPD_01-b
 75 78 0 0 0
SMALL
GASTEIGER

@<TRIPOS>ATOM
      1 C1          4.6733   -7.8162   13.7915 C.ar    1  TOS111     -0.1337
      2 C2          6.2336   -5.7812   14.8720 C.ar    1  TOS111      0.1079
      3 ****        9.9352   -8.0005   13.3356 H       1  TOS111      0.1434
      4 ****        8.5735   -9.8678   12.4790 H       1  TOS111      0.1528
      5 ****        4.0616   -6.7264   14.4122 C.ar    1  TOS111     -0.0848
      6 ****        4.8420   -5.7035   14.9521 C.ar    1  TOS111     -0.1515
      7 ****        4.0292   -8.5785   13.3777 H       1  TOS111      0.1386
      8 ****        6.8053   -9.2441   10.2712 H       2  APM222      0.1154
      9 ****        5.3022  -10.4327    8.5482 H       2  APM222      0.1152
     10 ****        6.1690   -9.0230    7.9137 H       2  APM222      0.1121
     11 ****        2.8710  -10.4660    8.2971 H       2  APM222      0.1343
     12 ****        4.9956   -6.8009    7.6851 H       2  APM222      0.1638
     13 ****        2.8594   -5.6061    7.3473 H       2  APM222      0.1662
     14 ****        0.7151   -6.7687    7.7675 H       2  APM222      0.1370
     15 ****        3.9973   -9.8029   10.9190 H       2  APM222      0.2290
     16 ****       -1.6563   -9.4335    7.4364 H       2  APM222      0.2723
     17 ****       -0.6904   -8.0264    6.9649 H       2  APM222      0.2971
     18 ****        1.0576  -11.0980    8.9979 H       2  APM222      0.2978
     19 ****       -0.6508  -11.2001    8.5433 H       2  APM222      0.2729
     20 ****        7.5116   -6.1605    8.2583 H       3  PIP333      0.0928
     21 ****        7.8356   -7.7441    8.9719 H       3  PIP333      0.1021
     22 ****        9.6828   -6.1119    9.4185 H       3  PIP333      0.1113
     23 ****        8.9435   -6.7115   10.9279 H       3  PIP333      0.0879
     24 ****       10.7948   -3.7188   11.1921 C.3     4  SULFONYL44   -0.8080
     25 S1          9.4612   -3.4113   10.0261 S.O2    4  SULFONYL44    2.5650
     26 ****        7.0048   -3.4564   11.3804 H       3  PIP333      0.1243
     27 ****        7.2283   -5.0544   12.1360 H       3  PIP333      0.0976
     28 ****        5.0672   -4.9684   10.8790 H       3  PIP333      0.1336
     29 ****        5.9317   -4.5076    9.3969 H       3  PIP333      0.0823
     30 S           5.7740  -10.4331   12.4830 S.O2    1  TOS111      2.6142
     31 O1          6.7040  -11.4411   12.0170 O.2     1  TOS111     -0.8704
     32 O2          4.7722  -10.8269   13.4545 O.2     1  TOS111     -0.8570
     33 C1          6.6885   -9.0238   13.1044 C.ar    1  TOS111     -0.7190
     34 C2          6.0696   -7.9129   13.7012 C.ar    1  TOS111      0.0652
     35 C3          6.8474   -6.8664   14.2243 C.ar    1  TOS111     -0.0737
     36 C4          8.2410   -6.9028   14.0916 C.ar    1  TOS111     -0.0306
     37 C5          8.8557   -7.9810   13.4540 C.ar    1  TOS111     -0.1832
     38 C6          8.0788   -9.0362   12.9668 C.ar    1  TOS111     -0.0191
     39 ****        6.9703   -4.7924   15.4326 N.pl3   1  TOS111     -0.3981
     40 C           5.5375   -7.4848   10.3680 C.2     2  APM222      0.2730
     41 CA          5.7635   -8.9549   10.0855 C.3     2  APM222      0.0512
     42 CB          5.3850   -9.3376    8.6224 C.3     2  APM222     -0.1242
     43 CG          4.0592   -8.6813    8.1961 C.ar    2  APM222     -0.0563
     44 CD1         2.8505   -9.3892    8.1723 C.ar    2  APM222     -0.0773
     45 CD2         4.0573   -7.3328    7.8202 C.ar    2  APM222     -0.0576
     46 CE1         1.6264   -8.7278    7.9815 C.ar    2  APM222     -0.1500
     47 CE2         2.8493   -6.6593    7.6221 C.ar    2  APM222     -0.1042
     48 CZ          1.6387   -7.3399    7.7866 C.ar    2  APM222     -0.0844
     49 CF          0.3114   -9.4860    7.9858 C.3     2  APM222      0.3356
     50 O           4.5138   -7.2489   10.9917 O.2     2  APM222     -0.3656
     51 N           4.9859   -9.7209   11.0549 N.3     2  APM222     -0.8278
     52 NG1        -0.7481   -8.9459    7.4292 N.3     2  APM222     -0.3283
     53 NG2         0.2355  -10.6723    8.5420 N.3     2  APM222     -0.3262
     54 N1          6.3626   -6.4718    9.9757 N.am    3  PIP333     -0.3362
     55 C2          7.5947   -6.7037    9.2145 C.3     3  PIP333     -0.0312
     56 C3          8.7663   -6.1038   10.0265 C.3     3  PIP333     -0.0193
     57 N4          8.4008   -4.7519   10.4297 N.3     3  PIP333     -0.8013
     58 C5          7.1737   -4.5222   11.1772 C.3     3  PIP333     -0.0287
     59 C6          6.0152   -5.0908   10.3292 C.3     3  PIP333     -0.0259
     60 O           8.8263   -2.1567   10.3745 O.2     4  SULFONYL44   -0.8678
     61 O           9.9639   -3.5970    8.6807 O.2     4  SULFONYL44   -0.8691
     62 ****       10.4000   -3.6900   12.2174 H       4  SULFONYL44    0.1395
     63 ****       11.5632   -2.9419   11.0741 H       4  SULFONYL44    0.1542
     64 ****       11.2442   -4.7036   11.0047 H       4  SULFONYL44    0.1366
     65 ****        2.9784   -6.6720   14.4783 H       1  TOS111      0.1377
     66 ****        4.3653   -4.8516   15.4312 H       1  TOS111      0.1458
     67 ****        8.8652   -6.0980   14.4713 H       1  TOS111      0.1499
     68 C68         7.2077   -3.5606   14.6865 C.3     1  TOS111     -0.0349
     69 C69         7.4290   -4.9219   16.8140 C.3     1  TOS111     -0.0365
     70 ****        7.4058   -2.7163   15.3687 H       1  TOS111      0.0876
     71 ****        6.3294   -3.3085   14.0672 H       1  TOS111      0.0707
     72 ****        8.0825   -3.7036   14.0370 H       1  TOS111      0.0460
     73 ****        7.1221   -5.8875   17.2488 H       1  TOS111      0.0910
     74 ****        7.0061   -4.1124   17.4287 H       1  TOS111      0.0681
     75 ****        8.5269   -4.8557   16.8383 H       1  TOS111      0.0629
@<TRIPOS>BOND
     1    34     1   ar
     2     2    35   ar
     3    37     3    1
     4    38     4    1
     5     1     5   ar
     6     6     2   ar
     7     5     6   ar
     8    41     8    1
     9    42     9    1
    10    42    10    1
    11    44    11    1
    12    45    12    1
    13    47    13    1
    14    48    14    1
    15    51    15    1
    16    52    16    1
    17    52    17    1
    18    53    18    1
    19    53    19    1
    20    55    20    1
    21    55    21    1
    22    56    22    1
    23    56    23    1
    24    57    25    1
    25    25    60    2
    26    58    26    1
    27    58    27    1
    28    59    28    1
    29    59    29    1
    30    30    33    1
    31    30    32    2
    32    30    31    2
    33    33    38   ar
    34    33    34   ar
    35    34    35   ar
    36    35    36   ar
    37     1     7    1
    38    36    37   ar
    39    37    38   ar
    40    40    50    2
    41    40    41    1
    42    41    51    1
    43    41    42    1
    44    42    43    1
    45    43    45   ar
    46    43    44   ar
    47    44    46   ar
    48    46    49    1
    49    46    48   ar
    50    48    47   ar
    51    47    45   ar
    52    49    53    1
    53    49    52    1
    54    59    54    1
    55    54    55    1
    56    55    56    1
    57    56    57    1
    58    57    58    1
    59    58    59    1
    60    40    54   am
    61    51    30    1
    62    25    61    2
    63    25    24    1
    64    24    62    1
    65    24    63    1
    66    24    64    1
    67     2    39    1
    68     5    65    1
    69     6    66    1
    70    36    67    1
    71    39    68    1
    72    39    69    1
    73    68    70    1
    74    68    71    1
    75    68    72    1
    76    69    73    1
    77    69    74    1
    78    69    75    1
