@<TRIPOS>MOLECULE
CPD_23-b
 68 70 0 0 0
SMALL
GASTEIGER

@<TRIPOS>ATOM
      1 C1          3.5966   -8.4094   13.6775 C.3     1  TOS111     -0.1843
      2 ****        4.5035   -6.1572   14.6110 H       1  TOS111      0.1398
      3 C3          6.9241   -4.9579   15.1516 C.3     1  TOS111     -0.1826
      4 C4          8.7686   -9.2750   13.4929 C.3     1  TOS111     -0.2037
      5 ****        8.7112   -6.8235   14.3641 H       1  TOS111      0.1397
      6 ****        5.9934   -4.4033   15.3420 H       1  TOS111      0.0887
      7 ****        7.5472   -4.3712   14.4609 H       1  TOS111      0.0885
      8 ****        6.7546   -9.2895   10.3964 H       2  APM222      0.1248
      9 ****        5.2426  -10.4803    8.6375 H       2  APM222      0.1162
     10 ****        6.1620   -9.0908    8.0506 H       2  APM222      0.1101
     11 ****        2.7966  -10.3631    8.5197 H       2  APM222      0.1327
     12 ****        5.1038   -6.8434    7.7293 H       2  APM222      0.1639
     13 ****        3.0753   -5.6791    6.9543 H       2  APM222      0.1639
     14 ****        0.8816   -6.7542    7.1305 H       2  APM222      0.1345
     15 ****        3.9868  -10.0319   10.9513 H       2  APM222      0.2278
     16 ****       -1.5926   -9.3840    7.0427 H       2  APM222      0.2726
     17 ****       -0.5495   -8.0906    6.4505 H       2  APM222      0.2946
     18 ****        0.8618  -10.8374    9.1031 H       2  APM222      0.2959
     19 ****       -0.7807  -10.9616    8.4713 H       2  APM222      0.2727
     20 ****        7.5554   -6.2421    8.4151 H       3  PIP333      0.0786
     21 ****        7.8318   -7.8164    9.1571 H       3  PIP333      0.0977
     22 ****        9.6720   -6.2649    9.7419 H       3  PIP333      0.0956
     23 ****        8.7665   -6.7695   11.2015 H       3  PIP333      0.0952
     24 ****        8.4431   -4.1194    9.6705 H       3  PIP333      0.0877
     25 C25         9.5283   -4.1484   11.5557 C.3     3  PIP333     -0.2063
     26 ****        6.8197   -3.5077   11.4782 H       3  PIP333      0.0952
     27 ****        7.0357   -5.1335   12.1950 H       3  PIP333      0.0993
     28 ****        4.9545   -5.0342   10.8339 H       3  PIP333      0.1243
     29 ****        5.8895   -4.5983    9.3905 H       3  PIP333      0.0730
     30 S           5.7388  -10.4446   12.5792 S.O2    1  TOS111      2.6258
     31 O1          6.8976  -11.1647   12.1055 O.2     1  TOS111     -0.8798
     32 O2          4.7836  -11.1756   13.3895 O.2     1  TOS111     -0.8672
     33 C1          6.1580   -8.8921   13.4077 C.ar    1  TOS111     -0.7020
     34 C2          5.0921   -8.0575   13.7940 C.ar    1  TOS111      0.0504
     35 C3          5.3394   -6.7947   14.3430 C.ar    1  TOS111     -0.1586
     36 C4          6.6406   -6.3421   14.5548 C.ar    1  TOS111     -0.0099
     37 C5          7.6976   -7.1844   14.2111 C.ar    1  TOS111     -0.1732
     38 C6          7.4735   -8.4649   13.6876 C.ar    1  TOS111      0.0362
     39 ****        7.4660   -5.0768   16.1014 H       1  TOS111      0.0981
     40 C           5.4695   -7.5510   10.4497 C.2     2  APM222      0.2756
     41 CA          5.7083   -9.0227   10.1926 C.3     2  APM222      0.0468
     42 CB          5.3449   -9.3874    8.7242 C.3     2  APM222     -0.1242
     43 CG          4.0706   -8.6760    8.2295 C.ar    2  APM222     -0.0540
     44 CD1         2.8291   -9.3251    8.2139 C.ar    2  APM222     -0.0731
     45 CD2         4.1513   -7.3593    7.7648 C.ar    2  APM222     -0.0541
     46 CE1         1.6591   -8.6699    7.8001 C.ar    2  APM222     -0.1459
     47 CE2         3.0016   -6.6937    7.3351 C.ar    2  APM222     -0.1087
     48 CZ          1.7610   -7.3297    7.3965 C.ar    2  APM222     -0.0847
     49 CF          0.3137   -9.3807    7.7804 C.3     2  APM222      0.3381
     50 O           4.4259   -7.3152   11.0361 O.2     2  APM222     -0.3723
     51 N           4.9480   -9.8287   11.1431 N.3     2  APM222     -0.8310
     52 NG1        -0.6720   -8.9190    7.0479 N.3     2  APM222     -0.3296
     53 NG2         0.1224  -10.4641    8.4942 N.3     2  APM222     -0.3267
     54 N1          6.3049   -6.5408   10.0618 N.am    3  PIP333     -0.3377
     55 C2          7.5788   -6.7753    9.3788 C.3     3  PIP333     -0.0175
     56 C3          8.7058   -6.1899   10.2665 C.3     3  PIP333     -0.1766
     57 C4          8.4309   -4.7029   10.6068 C.3     3  PIP333     -0.1069
     58 C5          7.0314   -4.5658   11.2556 C.3     3  PIP333     -0.1802
     59 C6          5.9311   -5.1545   10.3409 C.3     3  PIP333     -0.0114
     60 ****       10.5182   -4.2567   11.0874 H       3  PIP333      0.0806
     61 ****        9.5365   -4.6848   12.5180 H       3  PIP333      0.0759
     62 ****        9.3500   -3.0803   11.7522 H       3  PIP333      0.0805
     63 ****        3.3621   -9.3132   13.1127 H       1  TOS111      0.0783
     64 ****        3.0570   -7.5815   13.1931 H       1  TOS111      0.0989
     65 ****        3.1933   -8.5328   14.6936 H       1  TOS111      0.0999
     66 ****        8.6677  -10.3132   13.1771 H       1  TOS111      0.1196
     67 ****        9.2991   -9.3010   14.4572 H       1  TOS111      0.0973
     68 ****        9.4026   -8.7535   12.7599 H       1  TOS111      0.0870
@<TRIPOS>BOND
     1    34     1    1
     2    35     2    1
     3    36     3    1
     4    38     4    1
     5    37     5    1
     6     3     6    1
     7     3     7    1
     8    41     8    1
     9    42     9    1
    10    42    10    1
    11    44    11    1
    12    45    12    1
    13    47    13    1
    14    48    14    1
    15    51    15    1
    16    52    16    1
    17    52    17    1
    18    53    18    1
    19    53    19    1
    20    55    20    1
    21    55    21    1
    22    56    22    1
    23    56    23    1
    24    57    24    1
    25    57    25    1
    26    58    26    1
    27    58    27    1
    28    59    28    1
    29    59    29    1
    30    30    33    1
    31    30    32    2
    32    30    31    2
    33    33    38   ar
    34    33    34   ar
    35    34    35   ar
    36    35    36   ar
    37     3    39    1
    38    36    37   ar
    39    37    38   ar
    40    40    50    2
    41    40    41    1
    42    41    51    1
    43    41    42    1
    44    42    43    1
    45    43    45   ar
    46    43    44   ar
    47    44    46   ar
    48    46    49    1
    49    46    48   ar
    50    48    47   ar
    51    47    45   ar
    52    49    53    1
    53    49    52    1
    54    59    54    1
    55    54    55    1
    56    55    56    1
    57    56    57    1
    58    57    58    1
    59    58    59    1
    60    40    54   am
    61    51    30    1
    62    25    60    1
    63    25    61    1
    64    25    62    1
    65     1    63    1
    66     1    64    1
    67     1    65    1
    68     4    66    1
    69     4    67    1
    70     4    68    1
