@<TRIPOS>MOLECULE
CPD_09-b
 68 71 0 0 0
SMALL
GASTEIGER

@<TRIPOS>ATOM
      1 C1          3.9010   -6.3666   15.3040 C.ar    4  NAPHTHALENE44   -0.1012
      2 C2          4.0670   -5.1500   15.9709 C.ar    4  NAPHTHALENE44   -0.1309
      3 C3          5.3342   -4.5682   16.0546 C.ar    4  NAPHTHALENE44   -0.1010
      4 C4          6.4341   -5.2044   15.4715 C.ar    4  NAPHTHALENE44   -0.1340
      5 ****        6.7753   -9.3072   10.3975 H       2  APM222      0.1294
      6 ****        5.2404  -10.4904    8.6641 H       2  APM222      0.1159
      7 ****        6.1583   -9.1135    8.0519 H       2  APM222      0.1104
      8 ****        2.7962  -10.3801    8.5154 H       2  APM222      0.1337
      9 ****        5.1085   -6.8553    7.7449 H       2  APM222      0.1634
     10 ****        3.0745   -5.6743    7.0071 H       2  APM222      0.1649
     11 ****        0.8775   -6.7572    7.1789 H       2  APM222      0.1354
     12 ****        3.9812   -9.9505   11.0079 H       2  APM222      0.2289
     13 ****       -1.5839   -9.3724    7.0523 H       2  APM222      0.2732
     14 ****       -0.5344   -8.0705    6.4838 H       2  APM222      0.2953
     15 ****        0.8808  -10.8537    9.0933 H       2  APM222      0.2966
     16 ****       -0.7682  -10.9736    8.4710 H       2  APM222      0.2734
     17 ****        7.5476   -6.2233    8.4220 H       3  PIP333      0.0830
     18 ****        7.8106   -7.8163    9.1282 H       3  PIP333      0.1028
     19 ****        9.6608   -6.3097    9.7753 H       3  PIP333      0.1038
     20 ****        8.7191   -6.8187   11.2023 H       3  PIP333      0.1080
     21 ****        8.4466   -4.1364    9.6934 H       3  PIP333      0.1250
     22 C           9.4875   -4.2235   11.5711 C.2     5  CO255       0.3062
     23 ****        6.8203   -3.4955   11.4658 H       3  PIP333      0.1028
     24 ****        6.9947   -5.0873   12.2484 H       3  PIP333      0.1152
     25 ****        4.9439   -5.0509   10.8832 H       3  PIP333      0.1311
     26 ****        5.8591   -4.6002    9.4337 H       3  PIP333      0.0742
     27 S           5.7015  -10.4155   12.6303 S.O2    1  TOS111      2.6353
     28 O1          6.9942  -10.9922   12.3144 O.2     1  TOS111     -0.8700
     29 O2          4.7301  -11.2051   13.3606 O.2     1  TOS111     -0.8686
     30 C5          7.3700   -7.0700   14.2230 C.ar    4  NAPHTHALENE44   -0.1257
     31 C6          7.2019   -8.2826   13.5507 C.ar    4  NAPHTHALENE44   -0.0655
     32 C7          5.9383   -8.8728   13.4757 C.ar    4  NAPHTHALENE44   -0.7326
     33 C8          4.8405   -8.2273   14.0496 C.ar    4  NAPHTHALENE44    0.0297
     34 C9          5.0016   -7.0078   14.7181 C.ar    4  NAPHTHALENE44   -0.0542
     35 C10         6.2709   -6.4252   14.8051 C.ar    4  NAPHTHALENE44    0.0079
     36 H1          2.9112   -6.8070   15.2460 H       4  NAPHTHALENE44    0.1358
     37 C           5.4870   -7.5647   10.4950 C.2     2  APM222      0.2730
     38 CA          5.7277   -9.0334   10.2059 C.3     2  APM222      0.0442
     39 CB          5.3488   -9.3981    8.7390 C.3     2  APM222     -0.1230
     40 CG          4.0744   -8.6867    8.2465 C.ar    2  APM222     -0.0553
     41 CD1         2.8347   -9.3376    8.2243 C.ar    2  APM222     -0.0747
     42 CD2         4.1540   -7.3673    7.7881 C.ar    2  APM222     -0.0562
     43 CE1         1.6655   -8.6745    7.8194 C.ar    2  APM222     -0.1460
     44 CE2         3.0034   -6.6942    7.3740 C.ar    2  APM222     -0.1078
     45 CZ          1.7619   -7.3318    7.4331 C.ar    2  APM222     -0.0844
     46 CF          0.3206   -9.3851    7.7924 C.3     2  APM222      0.3360
     47 O           4.4764   -7.3418   11.1448 O.2     2  APM222     -0.3667
     48 N           4.9631   -9.8278   11.1613 N.3     2  APM222     -0.8322
     49 NG1        -0.6624   -8.9090    7.0665 N.3     2  APM222     -0.3286
     50 NG2         0.1349  -10.4761    8.4939 N.3     2  APM222     -0.3254
     51 N1          6.2996   -6.5454   10.0790 N.am    3  PIP333     -0.3421
     52 C2          7.5657   -6.7774    9.3740 C.3     3  PIP333     -0.0169
     53 C3          8.6871   -6.2163   10.2804 C.3     3  PIP333     -0.1754
     54 C4          8.4206   -4.7260   10.6267 C.3     3  PIP333     -0.1107
     55 C5          7.0218   -4.5621   11.2815 C.3     3  PIP333     -0.1772
     56 C6          5.9178   -5.1624   10.3795 C.3     3  PIP333     -0.0101
     57 O          10.2180   -3.2973   11.2516 O.2     5  CO255      -0.3325
     58 O           9.5309   -4.8865   12.7440 O.3     5  CO255      -0.2519
     59 ****       10.5279   -4.4504   13.6846 C.3     5  CO255      -0.0827
     60 H2          3.2128   -4.6574   16.4251 H       4  NAPHTHALENE44    0.1403
     61 H3          5.4648   -3.6228   16.5747 H       4  NAPHTHALENE44    0.1413
     62 H4          7.4122   -4.7397   15.5421 H       4  NAPHTHALENE44    0.1397
     63 H5          8.3613   -6.6350   14.2902 H       4  NAPHTHALENE44    0.1488
     64 H6          8.0579   -8.7647   13.0890 H       4  NAPHTHALENE44    0.1479
     65 H8          3.8604   -8.6863   13.9700 H       4  NAPHTHALENE44    0.1409
     66 ****       11.1563   -5.3210   13.9130 H       5  CO255       0.0886
     67 ****       10.0011   -4.1700   14.6060 H       5  CO255       0.0837
     68 ****       11.1798   -3.6163   13.3863 H       5  CO255       0.1178
@<TRIPOS>BOND
     1    27    32    1
     2    30    31   ar
     3    30    35   ar
     4    30    63    1
     5    35     4   ar
     6    35    34   ar
     7    34     1   ar
     8    38     5    1
     9    39     6    1
    10    39     7    1
    11    41     8    1
    12    42     9    1
    13    44    10    1
    14    45    11    1
    15    48    12    1
    16    49    13    1
    17    49    14    1
    18    50    15    1
    19    50    16    1
    20    52    17    1
    21    52    18    1
    22    53    19    1
    23    53    20    1
    24    54    21    1
    25    22    57    2
    26    55    23    1
    27    55    24    1
    28    56    25    1
    29    56    26    1
    30    34    33   ar
    31    27    29    2
    32    27    28    2
    33    33    32   ar
    34    33    65    1
    35    32    31   ar
    36    31    64    1
    37     1     2   ar
    38     1    36    1
    39    37    47    2
    40    37    38    1
    41    38    48    1
    42    38    39    1
    43    39    40    1
    44    40    42   ar
    45    40    41   ar
    46    41    43   ar
    47    43    46    1
    48    43    45   ar
    49    45    44   ar
    50    44    42   ar
    51    46    50    1
    52    46    49    1
    53    56    51    1
    54    51    52    1
    55    52    53    1
    56    53    54    1
    57    54    55    1
    58    55    56    1
    59    37    51   am
    60    48    27    1
    61    22    58    1
    62    54    22    1
    63    58    59    1
    64     2     3   ar
    65     2    60    1
    66     3     4   ar
    67     3    61    1
    68     4    62    1
    69    59    66    1
    70    59    67    1
    71    59    68    1
