@<TRIPOS>MOLECULE
CPD_88
 49 50 0 0 0
SMALL
GASTEIGER
Energy = 0

@<TRIPOS>ATOM
      1 ****        3.8439   -8.6852   14.0363 H       1  TOS11       0.1407
      2 ****        4.0502   -6.5238   15.2149 H       1  TOS11       0.1423
      3 ****        8.2660   -6.4664   14.3502 H       1  TOS11       0.1422
      4 ****        8.0499   -8.6286   13.1707 H       1  TOS11       0.1486
      5 ****        6.3228   -4.9671   15.5327 C.3     1  TOS11      -0.1832
      6 ****        5.3664   -4.5917   15.9261 H       1  TOS11       0.0902
      7 ****        6.7121   -4.2349   14.8075 H       1  TOS11       0.0884
      8 ****        6.7597   -9.1999   10.4056 H       2  APM22       0.1250
      9 ****        5.2662  -10.4505    8.6631 H       2  APM22       0.1170
     10 ****        6.1672   -9.0475    8.0892 H       2  APM22       0.1114
     11 ****        2.8037  -10.3623    8.5233 H       2  APM22       0.1337
     12 ****        5.1072   -6.8340    7.7476 H       2  APM22       0.1608
     13 ****        3.0786   -5.6759    6.9603 H       2  APM22       0.1653
     14 ****        0.8846   -6.7559    7.1409 H       2  APM22       0.1357
     15 ****        4.0235  -10.0360   11.0367 H       2  APM22       0.2308
     16 ****       -1.5912   -9.3818    7.0473 H       2  APM22       0.2739
     17 ****       -0.5456   -8.0894    6.4541 H       2  APM22       0.2951
     18 ****        0.8604  -10.8436    9.1024 H       2  APM22       0.2962
     19 ****       -0.7826  -10.9632    8.4672 H       2  APM22       0.2738
     20 N20         6.2681   -6.6189   10.1329 N.am    2  APM22      -0.3898
     21 ****        7.0865   -6.8689    9.6141 H       2  APM22       0.2341
     22 C22         6.0326   -5.2011   10.3969 C.3     2  APM22      -0.0752
     23 ****        6.8764   -4.7891   10.9763 H       2  APM22       0.0858
     24 ****        5.1053   -5.0288   10.9651 H       2  APM22       0.1184
     25 ****        5.9558   -4.6615    9.4375 H       2  APM22       0.0668
     26 S           5.7455  -10.3544   12.6718 S.O2    1  TOS11       2.6471
     27 O1          7.0608  -10.8836   12.3736 O.2     1  TOS11      -0.8738
     28 O2          4.8098  -11.1764   13.4081 O.2     1  TOS11      -0.8698
     29 C1          5.9306   -8.8077   13.5289 C.ar    1  TOS11      -0.7397
     30 C2          4.8107   -8.2000   14.1032 C.ar    1  TOS11      -0.0037
     31 C3          4.9296   -6.9727   14.7645 C.ar    1  TOS11      -0.1428
     32 C4          6.1719   -6.3313   14.8446 C.ar    1  TOS11      -0.0095
     33 C5          7.2930   -6.9455   14.2764 C.ar    1  TOS11      -0.1542
     34 C6          7.1721   -8.1715   13.6154 C.ar    1  TOS11      -0.0334
     35 ****        7.0332   -5.0531   16.3665 H       1  TOS11       0.0982
     36 C           5.4072   -7.5655   10.5646 C.2     2  APM22       0.2762
     37 CA          5.6913   -9.0097   10.2413 C.3     2  APM22       0.0310
     38 CB          5.3519   -9.3588    8.7616 C.3     2  APM22      -0.1212
     39 CG          4.0746   -8.6677    8.2485 C.ar    2  APM22      -0.0587
     40 CD1         2.8368   -9.3232    8.2212 C.ar    2  APM22      -0.0727
     41 CD2         4.1547   -7.3522    7.7795 C.ar    2  APM22      -0.0576
     42 CE1         1.6654   -8.6702    7.8069 C.ar    2  APM22      -0.1423
     43 CE2         3.0056   -6.6903    7.3447 C.ar    2  APM22      -0.1075
     44 CZ          1.7648   -7.3305    7.4070 C.ar    2  APM22      -0.0841
     45 CF          0.3158   -9.3819    7.7831 C.3     2  APM22       0.3372
     46 O           4.4000   -7.3082   11.2052 O.2     2  APM22      -0.3578
     47 N           4.9893   -9.8427   11.2028 N.3     2  APM22      -0.8345
     48 NG1        -0.6676   -8.9187    7.0513 N.3     2  APM22      -0.3286
     49 NG2         0.1223  -10.4659    8.4942 N.3     2  APM22      -0.3262
@<TRIPOS>BOND
     1    30     1    1
     2    31     2    1
     3    33     3    1
     4    34     4    1
     5    32     5    1
     6     5     6    1
     7     5     7    1
     8    37     8    1
     9    38     9    1
    10    38    10    1
    11    40    11    1
    12    41    12    1
    13    43    13    1
    14    44    14    1
    15    47    15    1
    16    48    16    1
    17    48    17    1
    18    49    18    1
    19    49    19    1
    20    36    20   am
    21    20    21    1
    22    20    22    1
    23    22    23    1
    24    22    24    1
    25    22    25    1
    26    26    29    1
    27    26    28    2
    28    26    27    2
    29    29    34   ar
    30    29    30   ar
    31    30    31   ar
    32    31    32   ar
    33     5    35    1
    34    32    33   ar
    35    33    34   ar
    36    36    46    2
    37    36    37    1
    38    37    47    1
    39    37    38    1
    40    38    39    1
    41    39    41   ar
    42    39    40   ar
    43    40    42   ar
    44    42    45    1
    45    42    44   ar
    46    44    43   ar
    47    43    41   ar
    48    45    49    1
    49    45    48    1
    50    47    26    1
