@<TRIPOS>MOLECULE
CPD_10-b
 68 72 0 0 0
SMALL
GASTEIGER

@<TRIPOS>ATOM
      1 C1          4.0867   -6.0010   14.9522 C.ar    4  NAPHTHALENE44   -0.0998
      2 C2          4.3845   -4.7669   15.5253 C.ar    4  NAPHTHALENE44   -0.1389
      3 C3          5.6999   -4.2948   15.5295 C.ar    4  NAPHTHALENE44   -0.1069
      4 C4          6.7144   -5.0588   14.9394 C.ar    4  NAPHTHALENE44   -0.1270
      5 H5          6.7805   -9.4165   10.3564 H       2  APM222      0.1196
      6 H6          5.4459  -10.4026    8.4179 H       2  APM222      0.0941
      7 H7          6.2979   -8.9091    7.9852 H       2  APM222      0.1423
      8 H8          3.0259  -10.4097    8.4069 H       2  APM222      0.1227
      9 H9          5.0339   -6.8329    7.6362 H       2  APM222      0.2201
     10 H10         2.9742   -5.6316    7.0900 H       2  APM222      0.1771
     11 H11         0.8581   -6.8160    7.2501 H       2  APM222      0.1223
     12 H12         3.9269   -9.9679   10.7085 H       2  APM222      0.2188
     13 H13        -1.5070   -9.5495    7.4538 H       2  APM222      0.2541
     14 H14        -0.6013   -8.2196    6.7836 H       2  APM222      0.2926
     15 H15         1.2161  -10.9080    9.2616 H       2  APM222      0.2961
     16 H16        -0.4501  -11.1170    8.8138 H       2  APM222      0.2539
     17 C1          6.0913   -5.2488   10.5773 C.3     3  TETRAHYDROISOQUINOLINE33    0.0605
     18 N1          6.4846   -6.6063   10.1896 N.am    3  TETRAHYDROISOQUINOLINE33   -0.2742
     19 C2          7.7406   -6.8285    9.4627 C.3     3  TETRAHYDROISOQUINOLINE33   -0.0607
     20 C3          8.8661   -6.0538   10.1868 C.3     3  TETRAHYDROISOQUINOLINE33   -0.1145
     21 C4          9.4913   -3.5862    9.9866 C.ar    3  TETRAHYDROISOQUINOLINE33   -0.1088
     22 C5          9.1329   -2.2420    9.8765 C.ar    3  TETRAHYDROISOQUINOLINE33   -0.1384
     23 C6          7.7846   -1.8720    9.9289 C.ar    3  TETRAHYDROISOQUINOLINE33   -0.1360
     24 C7          6.8033   -2.8429   10.1358 C.ar    3  TETRAHYDROISOQUINOLINE33   -0.1155
     25 C8          7.1635   -4.1883   10.2878 C.ar    3  TETRAHYDROISOQUINOLINE33   -0.0387
     26 S           5.4361  -10.3869   12.5518 S.O2    1  TOS111      2.6293
     27 O1          6.6534  -11.1566   12.3829 O.2     1  TOS111     -0.8759
     28 O2          4.3140  -10.9618   13.2678 O.2     1  TOS111     -0.8947
     29 C5          7.4323   -7.0665   13.7698 C.ar    4  NAPHTHALENE44   -0.1237
     30 C6          7.1374   -8.3124   13.2187 C.ar    4  NAPHTHALENE44   -0.0549
     31 C7          5.8326   -8.8091   13.2618 C.ar    4  NAPHTHALENE44   -0.7244
     32 C8          4.8164   -8.0309   13.8312 C.ar    4  NAPHTHALENE44    0.0352
     33 C9          5.1064   -6.7825   14.3792 C.ar    4  NAPHTHALENE44   -0.0523
     34 C10         6.4192   -6.2956   14.3653 C.ar    4  NAPHTHALENE44    0.0137
     35 H1          3.0609   -6.3557   14.9523 H       4  NAPHTHALENE44    0.1308
     36 C           5.5875   -7.6010   10.4476 C.2     2  APM222      0.2618
     37 CA          5.7695   -9.0643   10.1076 C.3     2  APM222      0.0476
     38 CB          5.4835   -9.3179    8.6031 C.3     2  APM222     -0.1163
     39 CG          4.1601   -8.6635    8.1745 C.ar    2  APM222     -0.0562
     40 CD1         2.9612   -9.3584    8.1833 C.ar    2  APM222     -0.0944
     41 CD2         4.1211   -7.3422    7.7360 C.ar    2  APM222     -0.0195
     42 CE1         1.7483   -8.7130    7.8889 C.ar    2  APM222     -0.1703
     43 CE2         2.9508   -6.6712    7.4059 C.ar    2  APM222     -0.1023
     44 CZ          1.7522   -7.3689    7.4927 C.ar    2  APM222     -0.0938
     45 CF          0.4519   -9.4811    8.0041 C.3     2  APM222      0.3431
     46 O           4.5256   -7.3331   10.9895 O.2     2  APM222     -0.4240
     47 N           4.8829   -9.8380   10.9694 N.3     2  APM222     -0.8245
     48 NG1        -0.6176   -9.0502    7.3797 N.3     2  APM222     -0.3355
     49 NG2         0.4096  -10.5723    8.7306 N.3     2  APM222     -0.3314
     50 C9          8.5045   -4.5636   10.1629 C.ar    3  TETRAHYDROISOQUINOLINE33   -0.0519
     51 H1          5.8950   -5.2100   11.6572 H       3  TETRAHYDROISOQUINOLINE33    0.0795
     52 H2          5.1666   -4.9792   10.0389 H       3  TETRAHYDROISOQUINOLINE33    0.1019
     53 C           7.6344   -6.0763    8.1555 C.2     5  CO255       0.3063
     54 H6          9.8231   -6.2285    9.6640 H       3  TETRAHYDROISOQUINOLINE33    0.1178
     55 H7          8.9605   -6.3922   11.2264 H       3  TETRAHYDROISOQUINOLINE33    0.0630
     56 H8         10.5366   -3.8713    9.9318 H       3  TETRAHYDROISOQUINOLINE33    0.1256
     57 H2          3.5940   -4.1688   15.9711 H       4  NAPHTHALENE44    0.1311
     58 H3          5.9345   -3.3405   15.9883 H       4  NAPHTHALENE44    0.1346
     59 H4          7.7299   -4.6738   14.9383 H       4  NAPHTHALENE44    0.1409
     60 H5          8.4517   -6.6963   13.7377 H       4  NAPHTHALENE44    0.1432
     61 H6          7.9264   -8.8969   12.7552 H       4  NAPHTHALENE44    0.1477
     62 H8          3.8019   -8.4160   13.8359 H       4  NAPHTHALENE44    0.1415
     63 H9          9.8994   -1.4840    9.7506 H       3  TETRAHYDROISOQUINOLINE33    0.1185
     64 H10         7.5038   -0.8298    9.8118 H       3  TETRAHYDROISOQUINOLINE33    0.1170
     65 H11         5.7592   -2.5490   10.1795 H       3  TETRAHYDROISOQUINOLINE33    0.1189
     66 H66         8.0603   -7.8777    9.3487 H       3  TETRAHYDROISOQUINOLINE33    0.1023
     67 O           6.6038   -5.4006    7.9345 O.co2   5  CO255      -0.5820
     68 O           8.6028   -6.0516    7.3582 O.co2   5  CO255      -0.5379
@<TRIPOS>BOND
     1    26    31    1
     2    29    30   ar
     3    29    34   ar
     4    29    60    1
     5    34     4   ar
     6    34    33   ar
     7    33     1   ar
     8    37     5    1
     9    38     6    1
    10    38     7    1
    11    40     8    1
    12    41     9    1
    13    43    10    1
    14    44    11    1
    15    47    12    1
    16    48    13    1
    17    48    14    1
    18    49    15    1
    19    49    16    1
    20    36    18   am
    21    21    22   ar
    22    21    50   ar
    23    21    56    1
    24    50    20    1
    25    50    25   ar
    26    25    17    1
    27    25    24   ar
    28    24    23   ar
    29    24    65    1
    30    33    32   ar
    31    26    28    2
    32    26    27    2
    33    32    31   ar
    34    32    62    1
    35    31    30   ar
    36    30    61    1
    37     1     2   ar
    38     1    35    1
    39    36    46    2
    40    36    37    1
    41    37    47    1
    42    37    38    1
    43    38    39    1
    44    39    41   ar
    45    39    40   ar
    46    40    42   ar
    47    42    45    1
    48    42    44   ar
    49    44    43   ar
    50    43    41   ar
    51    45    49    1
    52    45    48    1
    53    23    22   ar
    54    23    64    1
    55    22    63    1
    56    17    18    1
    57    17    51    1
    58    17    52    1
    59    18    19    1
    60    47    26    1
    61    19    20    1
    62    53    67   ar
    63     2     3   ar
    64     2    57    1
    65     3     4   ar
    66     3    58    1
    67     4    59    1
    68    20    54    1
    69    20    55    1
    70    19    66    1
    71    53    68   ar
    72    19    53    1
