@<TRIPOS>MOLECULE
CPD_46-b
 56 58 0 0 0
SMALL
GASTEIGER

@<TRIPOS>ATOM
      1 ****        3.8575   -8.6866   14.0584 H       1  TOS111      0.1411
      2 ****        4.0610   -6.5265   15.2359 H       1  TOS111      0.1420
      3 ****        8.2772   -6.4643   14.3812 H       1  TOS111      0.1414
      4 ****        8.0673   -8.6280   13.2004 H       1  TOS111      0.1483
      5 ****        6.3192   -4.9574   15.5392 C.3     1  TOS111     -0.1831
      6 ****        5.3565   -4.5901   15.9259 H       1  TOS111      0.0901
      7 ****        6.7022   -4.2295   14.8081 H       1  TOS111      0.0880
      8 ****        6.7730   -9.2508   10.3444 H       2  APM222      0.1271
      9 ****        5.1476  -10.5102    8.7301 H       2  APM222      0.1141
     10 ****        6.0857   -9.2089    8.0323 H       2  APM222      0.1113
     11 ****        2.7739  -10.3412    8.5525 H       2  APM222      0.1323
     12 ****        5.1017   -6.8444    7.7527 H       2  APM222      0.1645
     13 ****        3.0888   -5.6890    6.9181 H       2  APM222      0.1646
     14 ****        0.8949   -6.7490    7.0693 H       2  APM222      0.1354
     15 ****        4.0281  -10.0336   11.0600 H       2  APM222      0.2297
     16 ****       -1.6005   -9.4100    7.0192 H       2  APM222      0.2730
     17 ****       -0.5663   -8.1200    6.4102 H       2  APM222      0.2939
     18 ****        0.8287  -10.8088    9.1320 H       2  APM222      0.2954
     19 ****       -0.7986  -10.9497    8.4752 H       2  APM222      0.2729
     20 N1          6.3253   -6.6007   10.1056 N.am    3  PYRROLIDINE33   -0.3473
     21 C1          6.0420   -5.2019   10.3929 C.3     3  PYRROLIDINE33   -0.0038
     22 C2          7.4080   -4.5730   10.0257 C.3     3  PYRROLIDINE33   -0.1817
     23 C3          7.9243   -5.4800    8.8888 C.3     3  PYRROLIDINE33   -0.1808
     24 C4          7.5605   -6.8953    9.3855 C.3     3  PYRROLIDINE33   -0.0248
     25 H2          5.7680   -5.0098   11.4436 H       3  PYRROLIDINE33    0.1200
     26 H3          5.2428   -4.8435    9.7241 H       3  PYRROLIDINE33    0.0791
     27 H4          8.0983   -4.6640   10.8806 H       3  PYRROLIDINE33    0.0987
     28 S           5.7529  -10.3454   12.6822 S.O2    1  TOS111      2.6374
     29 O1          7.0624  -10.8836   12.3699 O.2     1  TOS111     -0.8741
     30 O2          4.8114  -11.1653   13.4210 O.2     1  TOS111     -0.8691
     31 C1          5.9446   -8.8014   13.5462 C.ar    1  TOS111     -0.7332
     32 C2          4.8240   -8.1986   14.1231 C.ar    1  TOS111     -0.0056
     33 C3          4.9409   -6.9721   14.7833 C.ar    1  TOS111     -0.1428
     34 C4          6.1797   -6.3258   14.8591 C.ar    1  TOS111     -0.0113
     35 C5          7.3054   -6.9418   14.3007 C.ar    1  TOS111     -0.1537
     36 C6          7.1883   -8.1684   13.6392 C.ar    1  TOS111     -0.0323
     37 ****        7.0281   -5.0320   16.3774 H       1  TOS111      0.0983
     38 C           5.4632   -7.5653   10.5179 C.2     2  APM222      0.2701
     39 CA          5.7036   -9.0266   10.2161 C.3     2  APM222      0.0427
     40 CB          5.2945   -9.4192    8.7631 C.3     2  APM222     -0.1224
     41 CG          4.0500   -8.6713    8.2519 C.ar    2  APM222     -0.0577
     42 CD1         2.8066   -9.3095    8.2307 C.ar    2  APM222     -0.0759
     43 CD2         4.1478   -7.3585    7.7761 C.ar    2  APM222     -0.0522
     44 CE1         1.6422   -8.6588    7.7917 C.ar    2  APM222     -0.1445
     45 CE2         3.0074   -6.6971    7.3157 C.ar    2  APM222     -0.1101
     46 CZ          1.7623   -7.3273    7.3653 C.ar    2  APM222     -0.0813
     47 CF          0.2999   -9.3755    7.7726 C.3     2  APM222      0.3401
     48 O           4.4563   -7.2860   11.1507 O.2     2  APM222     -0.3612
     49 N           4.9963   -9.8294   11.2106 N.3     2  APM222     -0.8359
     50 NG1        -0.6842   -8.9369    7.0226 N.3     2  APM222     -0.3296
     51 NG2         0.1011  -10.4475    8.5034 N.3     2  APM222     -0.3273
     52 H5          7.3356   -3.5145    9.7285 H       3  PYRROLIDINE33    0.1077
     53 H6          9.0009   -5.3727    8.6812 H       3  PYRROLIDINE33    0.1120
     54 H7          7.3592   -5.2481    7.9693 H       3  PYRROLIDINE33    0.0834
     55 H8          7.4840   -7.5431    8.5049 H       3  PYRROLIDINE33    0.0881
     56 H9          8.3172   -7.2892   10.0826 H       3  PYRROLIDINE33    0.0992
@<TRIPOS>BOND
     1    32     1    1
     2    33     2    1
     3    35     3    1
     4    36     4    1
     5    34     5    1
     6     5     6    1
     7     5     7    1
     8    39     8    1
     9    40     9    1
    10    40    10    1
    11    42    11    1
    12    43    12    1
    13    45    13    1
    14    46    14    1
    15    49    15    1
    16    50    16    1
    17    50    17    1
    18    51    18    1
    19    51    19    1
    20    38    20   am
    21    20    21    1
    22    20    24    1
    23    24    23    1
    24    24    55    1
    25    24    56    1
    26    23    22    1
    27    23    53    1
    28    23    54    1
    29    28    31    1
    30    28    30    2
    31    28    29    2
    32    31    36   ar
    33    31    32   ar
    34    32    33   ar
    35    33    34   ar
    36     5    37    1
    37    34    35   ar
    38    35    36   ar
    39    38    48    2
    40    38    39    1
    41    39    49    1
    42    39    40    1
    43    40    41    1
    44    41    43   ar
    45    41    42   ar
    46    42    44   ar
    47    44    47    1
    48    44    46   ar
    49    46    45   ar
    50    45    43   ar
    51    47    51    1
    52    47    50    1
    53    22    21    1
    54    22    27    1
    55    22    52    1
    56    21    25    1
    57    21    26    1
    58    49    28    1
