@<TRIPOS>MOLECULE
CPD_73
 67 70 0 0 0
SMALL
GASTEIGER
Energy = 0

@<TRIPOS>ATOM
      1 C1          3.8978   -6.3615   15.2928 C.ar    4  NAPHTHALENE4   -0.0997
      2 C2          4.0698   -5.1468   15.9624 C.ar    4  NAPHTHALENE4   -0.1295
      3 C3          5.3393   -4.5695   16.0418 C.ar    4  NAPHTHALENE4   -0.0951
      4 C4          6.4342   -5.2079   15.4532 C.ar    4  NAPHTHALENE4   -0.1390
      5 ****        6.7644   -9.3112   10.4049 H       2  APM22       0.1252
      6 ****        5.2604  -10.4920    8.6516 H       2  APM22       0.1164
      7 ****        6.1764   -9.1087    8.0440 H       2  APM22       0.1120
      8 ****        2.8060  -10.3941    8.5087 H       2  APM22       0.1334
      9 ****        5.1159   -6.8597    7.7445 H       2  APM22       0.1649
     10 ****        3.0655   -5.6581    7.0780 H       2  APM22       0.1661
     11 ****        0.8702   -6.7624    7.2343 H       2  APM22       0.1353
     12 ****        3.9552   -9.9173   10.9724 H       2  APM22       0.2289
     13 ****       -1.5681   -9.3627    7.0728 H       2  APM22       0.2731
     14 ****       -0.5145   -8.0496    6.5307 H       2  APM22       0.2963
     15 ****        0.9199  -10.8739    9.0820 H       2  APM22       0.2968
     16 ****       -0.7388  -10.9930    8.4782 H       2  APM22       0.2734
     17 ****        7.6761   -6.1867    8.5456 H       3  PIP33       0.1079
     18 ****        7.8423   -7.8204    9.1655 H       3  PIP33       0.1060
     19 ****        9.6916   -6.4403   10.0565 H       3  PIP33       0.1128
     20 ****        8.6054   -6.8541   11.4008 H       3  PIP33       0.0983
     21 S1          9.3986   -3.7285   10.1244 S.O2    5  SULFONYL5    2.6045
     22 O           8.8979   -2.4169   10.4842 O.2     5  SULFONYL5   -0.8824
     23 ****        6.9009   -3.4506   11.3767 H       3  PIP33       0.1371
     24 ****        6.9962   -4.9563   12.3032 H       3  PIP33       0.1006
     25 ****        4.9731   -5.0233   10.8940 H       3  PIP33       0.1357
     26 ****        5.9163   -4.6041    9.4561 H       3  PIP33       0.0817
     27 S           5.6608  -10.4210   12.6246 S.O2    1  TOS11       2.6281
     28 O1          6.9451  -11.0219   12.3190 O.2     1  TOS11      -0.8664
     29 O2          4.6678  -11.1893   13.3483 O.2     1  TOS11      -0.8643
     30 C5          7.3600   -7.0761   14.1973 C.ar    4  NAPHTHALENE4   -0.1347
     31 C6          7.1865   -8.2980   13.5403 C.ar    4  NAPHTHALENE4   -0.0634
     32 C7          5.9176   -8.8786   13.4663 C.ar    4  NAPHTHALENE4   -0.7331
     33 C8          4.8242   -8.2230   14.0361 C.ar    4  NAPHTHALENE4    0.0327
     34 C9          4.9934   -7.0051   14.7041 C.ar    4  NAPHTHALENE4   -0.0553
     35 C10         6.2672   -6.4270   14.7854 C.ar    4  NAPHTHALENE4    0.0083
     36 H1          2.9058   -6.7986   15.2368 H       4  NAPHTHALENE4    0.1377
     37 C           5.4818   -7.5527   10.4825 C.2     2  APM22       0.2731
     38 CA          5.7234   -9.0253   10.1972 C.3     2  APM22       0.0432
     39 CB          5.3647   -9.3983    8.7283 C.3     2  APM22      -0.1230
     40 CG          4.0851   -8.6927    8.2450 C.ar    2  APM22      -0.0564
     41 CD1         2.8480   -9.3483    8.2274 C.ar    2  APM22      -0.0749
     42 CD2         4.1595   -7.3685    7.7991 C.ar    2  APM22      -0.0558
     43 CE1         1.6777   -8.6795    7.8398 C.ar    2  APM22      -0.1483
     44 CE2         3.0018   -6.6877    7.4169 C.ar    2  APM22      -0.1052
     45 CZ          1.7632   -7.3304    7.4735 C.ar    2  APM22      -0.0846
     46 CF          0.3363   -9.3917    7.8102 C.3     2  APM22       0.3343
     47 O           4.4437   -7.3248   11.0843 O.2     2  APM22      -0.3688
     48 N           4.9369   -9.8129   11.1378 N.3     2  APM22      -0.8289
     49 NG1        -0.6465   -8.9005    7.0957 N.3     2  APM22      -0.3276
     50 NG2         0.1629  -10.4929    8.4974 N.3     2  APM22      -0.3251
     51 N1          6.3222   -6.5441   10.1108 N.am    3  PIP33      -0.3375
     52 C2          7.6146   -6.7916    9.4610 C.3     3  PIP33      -0.0401
     53 C3          8.6798   -6.2878   10.4586 C.3     3  PIP33      -0.0277
     54 N4          8.3581   -4.8855   10.6946 N.3     3  PIP33      -0.8245
     55 C5          7.0676   -4.5348   11.2891 C.3     3  PIP33      -0.0250
     56 C6          5.9538   -5.1535   10.4083 C.3     3  PIP33      -0.0299
     57 O           9.6634   -4.0111    8.7263 O.2     5  SULFONYL5   -0.8910
     58 ****       10.9308   -3.9903   11.0417 C.3     5  SULFONYL5   -0.8114
     59 ****       10.7423   -3.8610   12.1155 H       5  SULFONYL5    0.1389
     60 H2          3.2179   -4.6528   16.4199 H       4  NAPHTHALENE4    0.1427
     61 H3          5.4739   -3.6260   16.5626 H       4  NAPHTHALENE4    0.1440
     62 H4          7.4148   -4.7459   15.5212 H       4  NAPHTHALENE4    0.1407
     63 H5          8.3518   -6.6370   14.2462 H       4  NAPHTHALENE4    0.1395
     64 H6          8.0393   -8.7933   13.0900 H       4  NAPHTHALENE4    0.1463
     65 H8          3.8405   -8.6725   13.9531 H       4  NAPHTHALENE4    0.1433
     66 ****       11.6733   -3.2488   10.7124 H       5  SULFONYL5    0.1567
     67 ****       11.3399   -4.9919   10.8610 H       5  SULFONYL5    0.1324
@<TRIPOS>BOND
     1    27    32    1
     2    30    31   ar
     3    30    35   ar
     4    30    63    1
     5    35     4   ar
     6    35    34   ar
     7    34     1   ar
     8    38     5    1
     9    39     6    1
    10    39     7    1
    11    41     8    1
    12    42     9    1
    13    44    10    1
    14    45    11    1
    15    48    12    1
    16    49    13    1
    17    49    14    1
    18    50    15    1
    19    50    16    1
    20    52    17    1
    21    52    18    1
    22    53    19    1
    23    53    20    1
    24    21    22    2
    25    21    57    2
    26    55    23    1
    27    55    24    1
    28    56    25    1
    29    56    26    1
    30    34    33   ar
    31    27    29    2
    32    27    28    2
    33    33    32   ar
    34    33    65    1
    35    32    31   ar
    36    31    64    1
    37     1     2   ar
    38     1    36    1
    39    37    47    2
    40    37    38    1
    41    38    48    1
    42    38    39    1
    43    39    40    1
    44    40    42   ar
    45    40    41   ar
    46    41    43   ar
    47    43    46    1
    48    43    45   ar
    49    45    44   ar
    50    44    42   ar
    51    46    50    1
    52    46    49    1
    53    56    51    1
    54    51    52    1
    55    52    53    1
    56    53    54    1
    57    54    55    1
    58    55    56    1
    59    37    51   am
    60    48    27    1
    61    54    21    1
    62    21    58    1
    63    58    59    1
    64     2     3   ar
    65     2    60    1
    66     3     4   ar
    67     3    61    1
    68     4    62    1
    69    58    66    1
    70    58    67    1
