@<TRIPOS>MOLECULE
CPD_32-b
 68 71 0 0 0
SMALL
GASTEIGER

@<TRIPOS>ATOM
      1 C1          3.3996   -6.2086   14.8607 C.ar    4  NAPHTHALENE44   -0.1000
      2 C2          3.4413   -4.9326   15.4298 C.ar    4  NAPHTHALENE44   -0.1324
      3 C3          4.6615   -4.2632   15.5491 C.ar    4  NAPHTHALENE44   -0.0989
      4 C4          5.8374   -4.8722   15.1033 C.ar    4  NAPHTHALENE44   -0.1372
      5 ****        6.7676   -9.3598   10.3548 H       2  APM222      0.1308
      6 ****        5.2449  -10.4980    8.5848 H       2  APM222      0.1152
      7 ****        6.1500   -9.0982    8.0072 H       2  APM222      0.1117
      8 ****        2.8410  -10.3953    8.4276 H       2  APM222      0.1333
      9 ****        5.0897   -6.8347    7.7747 H       2  APM222      0.1636
     10 ****        3.0365   -5.6437    7.1055 H       2  APM222      0.1652
     11 ****        0.8721   -6.7072    7.3057 H       2  APM222      0.1361
     12 ****        4.0139  -10.1429   10.8790 H       2  APM222      0.2251
     13 ****       -1.6309   -9.3907    7.1053 H       2  APM222      0.2725
     14 ****       -0.6299   -8.0629    6.5483 H       2  APM222      0.2929
     15 ****        0.8421  -10.9491    9.0212 H       2  APM222      0.2938
     16 ****       -0.7934  -11.0267    8.3926 H       2  APM222      0.2726
     17 ****        7.5163   -6.2075    8.4762 H       3  PIP333      0.0902
     18 ****        7.7860   -7.8214    9.1270 H       3  PIP333      0.1087
     19 ****        9.1816   -4.3937   11.3495 H       3  PIP333      0.1052
     20 ****        8.6803   -6.8446   11.2509 H       3  PIP333      0.1260
     21 ****        8.4111   -4.1512    9.7553 H       3  PIP333      0.1031
     22 C22        11.7775   -7.7957    8.9323 C.3     5  CO255      -0.0801
     23 ****        6.8002   -3.5403   11.5611 H       3  PIP333      0.1043
     24 ****        7.0183   -5.1360   12.2923 H       3  PIP333      0.0964
     25 ****        4.9295   -5.1200   10.9891 H       3  PIP333      0.1296
     26 ****        5.8135   -4.6269    9.5313 H       3  PIP333      0.0745
     27 S           5.6303  -10.3302   12.6695 S.O2    1  TOS111      2.6286
     28 O1          6.9749  -10.8430   12.4859 O.2     1  TOS111     -0.8643
     29 O2          4.6554  -11.1214   13.3940 O.2     1  TOS111     -0.8669
     30 C5          6.9783   -6.7841   14.1187 C.ar    4  NAPHTHALENE44   -0.1358
     31 C6          6.9324   -8.0459   13.5205 C.ar    4  NAPHTHALENE44   -0.0612
     32 C7          5.7131   -8.7174   13.4059 C.ar    4  NAPHTHALENE44   -0.7323
     33 C8          4.5392   -8.1014   13.8459 C.ar    4  NAPHTHALENE44    0.0416
     34 C9          4.5761   -6.8237   14.4179 C.ar    4  NAPHTHALENE44   -0.0533
     35 C10         5.8022   -6.1583   14.5483 C.ar    4  NAPHTHALENE44    0.0099
     36 H1          2.4438   -6.7154   14.7689 H       4  NAPHTHALENE44    0.1350
     37 C           5.4685   -7.6201   10.4949 C.2     2  APM222      0.2708
     38 CA          5.7210   -9.0782   10.1670 C.3     2  APM222      0.0431
     39 CB          5.3460   -9.4065    8.6910 C.3     2  APM222     -0.1213
     40 CG          4.0669   -8.6852    8.2257 C.ar    2  APM222     -0.0594
     41 CD1         2.8314   -9.3427    8.1851 C.ar    2  APM222     -0.0742
     42 CD2         4.1385   -7.3518    7.8136 C.ar    2  APM222     -0.0539
     43 CE1         1.6418   -8.6819    7.8315 C.ar    2  APM222     -0.1397
     44 CE2         2.9780   -6.6745    7.4426 C.ar    2  APM222     -0.1101
     45 CZ          1.7412   -7.3190    7.5084 C.ar    2  APM222     -0.0833
     46 CF          0.2964   -9.4027    7.7933 C.3     2  APM222      0.3436
     47 O           4.4441   -7.4179   11.1277 O.2     2  APM222     -0.3663
     48 N           4.9586   -9.8991   11.1007 N.3     2  APM222     -0.8295
     49 NG1        -0.7153   -8.9174    7.1090 N.3     2  APM222     -0.3306
     50 NG2         0.1084  -10.5298    8.4411 N.3     2  APM222     -0.3281
     51 N1          6.2792   -6.5855   10.1238 N.am    3  PIP333     -0.3374
     52 C2          7.5414   -6.7920    9.4094 C.3     3  PIP333     -0.0101
     53 C3          8.6694   -6.2504   10.3208 C.3     3  PIP333     -0.1351
     54 C4          8.3932   -4.7626   10.6715 C.3     3  PIP333     -0.1456
     55 C5          7.0070   -4.6004   11.3420 C.3     3  PIP333     -0.1861
     56 C6          5.8923   -5.2117   10.4609 C.3     3  PIP333     -0.0126
     57 ****       12.5161   -8.1371    9.6725 H       5  CO255       0.0956
     58 ****       12.1926   -6.9167    8.4146 H       5  CO255       0.1144
     59 ****       11.6464   -8.5932    8.1864 H       5  CO255       0.0871
     60 H2          2.5271   -4.4626   15.7792 H       4  NAPHTHALENE44    0.1401
     61 H3          4.6947   -3.2708   15.9888 H       4  NAPHTHALENE44    0.1418
     62 H4          6.7772   -4.3358   15.1925 H       4  NAPHTHALENE44    0.1404
     63 H5          7.9391   -6.2900   14.2329 H       4  NAPHTHALENE44    0.1415
     64 H6          7.8439   -8.4991   13.1467 H       4  NAPHTHALENE44    0.1497
     65 H8          3.5966   -8.6264   13.7340 H       4  NAPHTHALENE44    0.1406
     66 C           9.9943   -6.3941    9.6109 C.2     5  CO255       0.2978
     67 O          10.5200   -5.4257    9.0845 O.2     5  CO255      -0.3381
     68 O          10.5090   -7.6357    9.6082 O.3     5  CO255      -0.2488
@<TRIPOS>BOND
     1    27    32    1
     2    30    31   ar
     3    30    35   ar
     4    30    63    1
     5    35     4   ar
     6    35    34   ar
     7    34     1   ar
     8    38     5    1
     9    39     6    1
    10    39     7    1
    11    41     8    1
    12    42     9    1
    13    44    10    1
    14    45    11    1
    15    48    12    1
    16    49    13    1
    17    49    14    1
    18    50    15    1
    19    50    16    1
    20    52    17    1
    21    52    18    1
    22    53    66    1
    23    53    20    1
    24    54    21    1
    25    54    19    1
    26    55    23    1
    27    55    24    1
    28    56    25    1
    29    56    26    1
    30    34    33   ar
    31    27    29    2
    32    27    28    2
    33    33    32   ar
    34    33    65    1
    35    32    31   ar
    36    31    64    1
    37     1     2   ar
    38     1    36    1
    39    37    47    2
    40    37    38    1
    41    38    48    1
    42    38    39    1
    43    39    40    1
    44    40    42   ar
    45    40    41   ar
    46    41    43   ar
    47    43    46    1
    48    43    45   ar
    49    45    44   ar
    50    44    42   ar
    51    46    50    1
    52    46    49    1
    53    56    51    1
    54    51    52    1
    55    52    53    1
    56    53    54    1
    57    54    55    1
    58    55    56    1
    59    37    51   am
    60    48    27    1
    61    68    22    1
    62    22    57    1
    63    22    58    1
    64     2     3   ar
    65     2    60    1
    66     3     4   ar
    67     3    61    1
    68     4    62    1
    69    22    59    1
    70    66    67    2
    71    66    68    1
