@<TRIPOS>MOLECULE
2_2A
 28 29 0 0 0
SMALL
GASTEIGER

@<TRIPOS>ATOM
      1 C          -1.3633    4.1532    0.7168 C.ar    1  LIG11      -0.0589
      2 C          -0.0532    4.4001    1.1001 C.ar    1  LIG11      -0.0293
      3 C           0.8603    3.3356    1.0925 C.ar    1  LIG11       0.1520
      4 C           0.5432    2.0301    0.7234 C.ar    1  LIG11       0.1014
      5 C          -0.7946    1.8087    0.3390 C.ar    1  LIG11       0.0026
      6 C          -1.7324    2.8626    0.3378 C.ar    1  LIG11      -0.0524
      7 N           1.4490    1.0230    0.7270 N.ar    1  LIG11      -0.2491
      8 C           1.0733   -0.2253    0.3555 C.ar    1  LIG11       0.0446
      9 C          -0.2277   -0.5117   -0.0340 C.ar    1  LIG11      -0.0395
     10 C          -1.1659    0.5147   -0.0411 C.ar    1  LIG11      -0.0508
     11 C           2.1544   -1.2873    0.3890 C.3     1  LIG11      -0.0043
     12 C           2.4274   -1.8591   -1.0032 C.3     1  LIG11      -0.0572
     13 C           1.8258   -2.3980    1.3879 C.3     1  LIG11      -0.0572
     14 N           2.2134    3.6169    1.4943 N.pl3   1  LIG11       0.0585
     15 O           2.9953    3.9950    0.6105 O.2     1  LIG11      -0.1261
     16 O           2.4660    3.5473    2.7054 O.2     1  LIG11      -0.1261
     17 H          -2.0966    4.9565    0.7112 H       1  LIG11       0.0618
     18 H           0.2547    5.3990    1.3992 H       1  LIG11       0.0641
     19 H          -2.7632    2.6784    0.0384 H       1  LIG11       0.0624
     20 H          -0.5186   -1.5144   -0.3297 H       1  LIG11       0.0636
     21 H          -2.1866    0.2952   -0.3455 H       1  LIG11       0.0625
     22 H           3.0821   -0.8082    0.7305 H       1  LIG11       0.0358
     23 H           1.5614   -2.3996   -1.4005 H       1  LIG11       0.0236
     24 H           3.2707   -2.5576   -0.9741 H       1  LIG11       0.0236
     25 H           2.6766   -1.0615   -1.7120 H       1  LIG11       0.0236
     26 H           1.6450   -1.9852    2.3867 H       1  LIG11       0.0236
     27 H           2.6576   -3.1066    1.4634 H       1  LIG11       0.0236
     28 H           0.9340   -2.9622    1.0938 H       1  LIG11       0.0236
@<TRIPOS>BOND
     1    25    12    1
     2    23    12    1
     3    12    24    1
     4    12    11    1
     5    21    10    1
     6    20     9    1
     7    10     9   ar
     8    10     5   ar
     9     9     8   ar
    10    19     6    1
    11     6     5   ar
    12     6     1   ar
    13     5     4   ar
    14     8    11    1
    15     8     7   ar
    16    11    22    1
    17    11    13    1
    18    15    14    2
    19    17     1    1
    20     1     2   ar
    21     4     7   ar
    22     4     3   ar
    23     3     2   ar
    24     3    14    1
    25    28    13    1
    26     2    18    1
    27    13    27    1
    28    13    26    1
    29    14    16    2
