@<TRIPOS>MOLECULE
2_4D
 40 42 0 0 0
SMALL
GASTEIGER

@<TRIPOS>ATOM
      1 C          -1.3532    4.1383    0.7161 C.ar    1  LIG11      -0.0593
      2 C          -0.0349    4.3782    1.0996 C.ar    1  LIG11      -0.0384
      3 C           0.8939    3.3340    1.1005 C.ar    1  LIG11       0.0598
      4 C           0.5184    2.0364    0.7185 C.ar    1  LIG11       0.0924
      5 C          -0.8156    1.8057    0.3331 C.ar    1  LIG11       0.0022
      6 C          -1.7448    2.8581    0.3339 C.ar    1  LIG11      -0.0524
      7 N           1.4408    1.0456    0.7297 N.ar    1  LIG11      -0.2495
      8 C           1.0784   -0.2059    0.3613 C.ar    1  LIG11       0.0451
      9 C          -0.2209   -0.5069   -0.0311 C.ar    1  LIG11      -0.0395
     10 C          -1.1734    0.5075   -0.0447 C.ar    1  LIG11      -0.0508
     11 C           2.1394   -1.2962    0.3853 C.3     1  LIG11       0.0014
     12 C           2.6718   -1.5638    1.8040 C.3     1  LIG11      -0.0448
     13 C           3.7325   -0.5693    2.2748 C.3     1  LIG11      -0.0525
     14 N           2.2497    3.4896    1.4746 N.am    1  LIG11      -0.2764
     15 C           2.9193    4.6300    1.8954 C.2     1  LIG11       0.3215
     16 O           2.4077    5.7438    2.0143 O.2     1  LIG11      -0.2657
     17 C           4.8580   -0.4163    1.2589 C.3     1  LIG11      -0.0530
     18 C           4.3306   -0.0394   -0.1201 C.3     1  LIG11      -0.0525
     19 C           3.2764   -1.0285   -0.6164 C.3     1  LIG11      -0.0448
     20 C           4.4055    4.3649    2.2096 C.3     1  LIG11       0.4697
     21 H          -2.0736    4.9531    0.7166 H       1  LIG11       0.0618
     22 H           0.2377    5.3873    1.3919 H       1  LIG11       0.0637
     23 H          -2.7771    2.6861    0.0371 H       1  LIG11       0.0624
     24 H          -0.5003   -1.5138   -0.3246 H       1  LIG11       0.0636
     25 H          -2.1911    0.2782   -0.3506 H       1  LIG11       0.0625
     26 H           1.6480   -2.2232    0.0575 H       1  LIG11       0.0364
     27 H           3.1245   -2.5646    1.8140 H       1  LIG11       0.0272
     28 H           1.8480   -1.5909    2.5279 H       1  LIG11       0.0272
     29 H           3.2771    0.4071    2.4716 H       1  LIG11       0.0265
     30 H           4.1495   -0.9112    3.2294 H       1  LIG11       0.0265
     31 H           2.7808    2.6165    1.4137 H       1  LIG11       0.1551
     32 H           5.5646    0.3468    1.6042 H       1  LIG11       0.0265
     33 H           5.4163   -1.3581    1.1900 H       1  LIG11       0.0265
     34 H           3.9175    0.9745   -0.0935 H       1  LIG11       0.0265
     35 H           5.1638   -0.0125   -0.8321 H       1  LIG11       0.0265
     36 H           2.8733   -0.6834   -1.5764 H       1  LIG11       0.0272
     37 H           3.7824   -1.9822   -0.8190 H       1  LIG11       0.0272
     38 F           5.2449    5.1068    1.4361 F       1  LIG11      -0.1620
     39 F           4.7515    3.0594    2.0004 F       1  LIG11      -0.1620
     40 F           4.7232    4.6368    3.5051 F       1  LIG11      -0.1620
@<TRIPOS>BOND
     1    36    19    1
     2    35    18    1
     3    37    19    1
     4    19    18    1
     5    19    11    1
     6    25    10    1
     7    24     9    1
     8    18    34    1
     9    18    17    1
    10    10     9   ar
    11    10     5   ar
    12     9     8   ar
    13    23     6    1
    14    26    11    1
    15     5     6   ar
    16     5     4   ar
    17     6     1   ar
    18     8    11    1
    19     8     7   ar
    20    11    12    1
    21     1    21    1
    22     1     2   ar
    23     4     7   ar
    24     4     3   ar
    25     2     3   ar
    26     2    22    1
    27     3    14    1
    28    33    17    1
    29    17    32    1
    30    17    13    1
    31    31    14    1
    32    38    20    1
    33    14    15   am
    34    12    27    1
    35    12    13    1
    36    12    28    1
    37    15    16    2
    38    15    20    1
    39    39    20    1
    40    20    40    1
    41    13    29    1
    42    13    30    1
