@<TRIPOS>MOLECULE
3_11E
 47 51 0 0 0
SMALL
GASTEIGER

@<TRIPOS>ATOM
      1 C          -1.3428    4.1692    0.7428 C.ar    1  LIG11      -0.0611
      2 C          -0.0209    4.3780    1.1051 C.ar    1  LIG11      -0.0597
      3 C           0.8778    3.3098    1.0807 C.ar    1  LIG11      -0.0357
      4 C           0.4934    2.0314    0.6981 C.ar    1  LIG11       0.0721
      5 C          -0.8389    1.8090    0.3120 C.ar    1  LIG11       0.0144
      6 C          -1.7525    2.8955    0.3521 C.ar    1  LIG11      -0.0518
      7 N           1.4198    1.0580    0.7241 N.ar    1  LIG11      -0.2510
      8 C           1.0952   -0.2148    0.3847 C.ar    1  LIG11       0.0489
      9 C          -0.1914   -0.5308   -0.0142 C.ar    1  LIG11      -0.0252
     10 C          -1.1509    0.4857   -0.0684 C.ar    1  LIG11       0.0698
     11 C          -2.4943    0.0729   -0.5209 C.2     1  LIG11       0.3396
     12 O          -3.0861   -0.8958   -0.0749 O.2     1  LIG11      -0.2449
     13 O          -2.8924    0.8645   -1.5458 O.3     1  LIG11      -0.4644
     14 C           2.2261   -1.2410    0.4738 C.3     1  LIG11       0.0137
     15 C           3.3930   -0.8039   -0.4571 C.3     1  LIG11      -0.0391
     16 C           4.5855   -1.7692   -0.3382 C.3     1  LIG11      -0.0397
     17 C           4.1384   -3.1823   -0.7399 C.3     1  LIG11      -0.0473
     18 C           3.0083   -3.6561    0.1859 C.3     1  LIG11      -0.0397
     19 C           1.8187   -2.6875    0.0694 C.3     1  LIG11      -0.0391
     20 C          -4.1546    0.4963   -2.1033 C.3     1  LIG11       0.0820
     21 C           5.0791   -1.7869    1.1178 C.3     1  LIG11      -0.0473
     22 C           3.9523   -2.2588    2.0513 C.3     1  LIG11      -0.0397
     23 C           3.5084   -3.6697    1.6379 C.3     1  LIG11      -0.0473
     24 C           2.7594   -1.2938    1.9338 C.3     1  LIG11      -0.0391
     25 H          -2.0543    4.9907    0.7647 H       1  LIG11       0.0618
     26 H           0.3161    5.3644    1.4126 H       1  LIG11       0.0618
     27 H           1.9117    3.4780    1.3751 H       1  LIG11       0.0639
     28 H          -2.7969    2.7567    0.0822 H       1  LIG11       0.0624
     29 H          -0.4759   -1.5405   -0.2903 H       1  LIG11       0.0644
     30 H           3.7327    0.2101   -0.2075 H       1  LIG11       0.0277
     31 H           3.0498   -0.7650   -1.4997 H       1  LIG11       0.0277
     32 H           5.3949   -1.4371   -0.9980 H       1  LIG11       0.0301
     33 H           4.9868   -3.8751   -0.6807 H       1  LIG11       0.0271
     34 H           3.7967   -3.1859   -1.7822 H       1  LIG11       0.0271
     35 H           2.6923   -4.6644   -0.1045 H       1  LIG11       0.0301
     36 H           1.0027   -3.0487    0.7094 H       1  LIG11       0.0277
     37 H           1.4450   -2.7055   -0.9631 H       1  LIG11       0.0277
     38 H          -4.9421    0.5608   -1.3458 H       1  LIG11       0.0661
     39 H          -4.1061   -0.5112   -2.5281 H       1  LIG11       0.0661
     40 H          -4.3885    1.2004   -2.9065 H       1  LIG11       0.0661
     41 H           5.4153   -0.7852    1.4122 H       1  LIG11       0.0271
     42 H           5.9455   -2.4532    1.2108 H       1  LIG11       0.0271
     43 H           4.3127   -2.2742    3.0860 H       1  LIG11       0.0301
     44 H           2.7137   -4.0240    2.3058 H       1  LIG11       0.0271
     45 H           4.3456   -4.3712    1.7395 H       1  LIG11       0.0271
     46 H           1.9590   -1.6087    2.6168 H       1  LIG11       0.0277
     47 H           3.0758   -0.2974    2.2699 H       1  LIG11       0.0277
@<TRIPOS>BOND
     1    40    20    1
     2    39    20    1
     3    20    13    1
     4    20    38    1
     5    34    17    1
     6    13    11    1
     7    31    15    1
     8    32    16    1
     9    37    19    1
    10    17    33    1
    11    17    16    1
    12    17    18    1
    13    11    12    2
    14    11    10    1
    15    15    16    1
    16    15    30    1
    17    15    14    1
    18    16    21    1
    19    29     9    1
    20    35    18    1
    21    10     9   ar
    22    10     5   ar
    23     9     8   ar
    24    19    18    1
    25    19    14    1
    26    19    36    1
    27    28     6    1
    28    18    23    1
    29     5     6   ar
    30     5     4   ar
    31     6     1   ar
    32     8    14    1
    33     8     7   ar
    34    14    24    1
    35     4     7   ar
    36     4     3   ar
    37     1    25    1
    38     1     2   ar
    39     3     2   ar
    40     3    27    1
    41     2    26    1
    42    21    42    1
    43    21    41    1
    44    21    22    1
    45    23    45    1
    46    23    22    1
    47    23    44    1
    48    24    22    1
    49    24    47    1
    50    24    46    1
    51    22    43    1
