@<TRIPOS>MOLECULE
3_4A
 36 38 0 0 0
SMALL
GASTEIGER

@<TRIPOS>ATOM
      1 C          -1.3348    4.1588    0.7383 C.ar    1  LIG11      -0.0611
      2 C          -0.0169    4.3763    1.1045 C.ar    1  LIG11      -0.0597
      3 C           0.8855    3.3133    1.0855 C.ar    1  LIG11      -0.0357
      4 C           0.5065    2.0332    0.7056 C.ar    1  LIG11       0.0722
      5 C          -0.8374    1.7898    0.3143 C.ar    1  LIG11       0.0039
      6 C          -1.7408    2.8817    0.3495 C.ar    1  LIG11      -0.0523
      7 N           1.4494    1.0816    0.7365 N.ar    1  LIG11      -0.2401
      8 CA          1.0712   -0.1750    0.3823 C.ar    1  LIG11       0.1483
      9 C          -0.2037   -0.5304   -0.0186 C.ar    1  LIG11      -0.0252
     10 C          -1.1904    0.4616   -0.0811 C.ar    1  LIG11      -0.0329
     11 C           2.1521   -1.2016    0.4540 C.2     1  LIG11       0.3553
     12 O           2.0192   -2.3810    0.1822 O.2     1  LIG11      -0.2434
     13 OXT         3.3120   -0.6335    0.8674 O.3     1  LIG11      -0.4761
     14 C          -2.6088    0.0997   -0.5232 C.3     1  LIG11      -0.0152
     15 C          -3.4697   -0.2867    0.6922 C.3     1  LIG11      -0.0462
     16 C          -4.9161   -0.5716    0.2892 C.3     1  LIG11      -0.0525
     17 C          -5.0058   -1.6233   -0.8125 C.3     1  LIG11      -0.0530
     18 C          -4.1450   -1.2542   -2.0172 C.3     1  LIG11      -0.0525
     19 C          -2.6953   -0.9974   -1.6061 C.3     1  LIG11      -0.0462
     20 H          -2.0501    4.9775    0.7551 H       1  LIG11       0.0618
     21 H           0.3130    5.3662    1.4093 H       1  LIG11       0.0618
     22 H           1.9167    3.4949    1.3813 H       1  LIG11       0.0639
     23 H          -2.7864    2.7560    0.0817 H       1  LIG11       0.0624
     24 H          -0.4047   -1.5671   -0.2674 H       1  LIG11       0.0644
     25 HXT         3.1496    0.3283    1.0193 H       1  LIG11       0.2955
     26 H          -3.0506    0.9860   -0.9946 H       1  LIG11       0.0349
     27 H          -3.4615    0.5147    1.4409 H       1  LIG11       0.0271
     28 H          -3.0490   -1.1743    1.1828 H       1  LIG11       0.0271
     29 H          -5.4825   -0.9073    1.1652 H       1  LIG11       0.0265
     30 H          -5.3856    0.3578   -0.0565 H       1  LIG11       0.0265
     31 H          -4.6809   -2.5933   -0.4162 H       1  LIG11       0.0265
     32 H          -6.0491   -1.7403   -1.1265 H       1  LIG11       0.0265
     33 H          -4.1804   -2.0628   -2.7561 H       1  LIG11       0.0265
     34 H          -4.5542   -0.3595   -2.5020 H       1  LIG11       0.0265
     35 H          -2.2749   -1.9432   -1.2451 H       1  LIG11       0.0271
     36 H          -2.1123   -0.7032   -2.4873 H       1  LIG11       0.0271
@<TRIPOS>BOND
     1    33    18    1
     2    34    18    1
     3    36    19    1
     4    18    19    1
     5    18    17    1
     6    19    35    1
     7    19    14    1
     8    32    17    1
     9    26    14    1
    10    17    31    1
    11    17    16    1
    12    14    10    1
    13    14    15    1
    14    24     9    1
    15    10     9   ar
    16    10     5   ar
    17    30    16    1
    18     9     8   ar
    19    23     6    1
    20    12    11    2
    21    16    15    1
    22    16    29    1
    23     5     6   ar
    24     5     4   ar
    25     6     1   ar
    26     8    11    1
    27     8     7   ar
    28    11    13    1
    29    15    28    1
    30    15    27    1
    31     4     7   ar
    32     4     3   ar
    33     1    20    1
    34     1     2   ar
    35    13    25    1
    36     3     2   ar
    37     3    22    1
    38     2    21    1
