@<TRIPOS>MOLECULE
3_7A
 36 38 0 0 0
SMALL
GASTEIGER

@<TRIPOS>ATOM
      1 C          -1.3513    4.1461    0.7161 C.ar    1  LIG11      -0.0611
      2 C          -0.0350    4.3750    1.1002 C.ar    1  LIG11      -0.0597
      3 C           0.8834    3.3211    1.0981 C.ar    1  LIG11      -0.0357
      4 C           0.5188    2.0362    0.7196 C.ar    1  LIG11       0.0713
      5 C          -0.8143    1.8089    0.3323 C.ar    1  LIG11       0.0012
      6 C          -1.7431    2.8652    0.3327 C.ar    1  LIG11      -0.0525
      7 N           1.4374    1.0549    0.7331 N.ar    1  LIG11      -0.2505
      8 C           1.0867   -0.2081    0.3533 C.ar    1  LIG11       0.0590
      9 C          -0.2204   -0.5172   -0.0283 C.ar    1  LIG11       0.0811
     10 C          -1.1736    0.5089   -0.0403 C.ar    1  LIG11      -0.0368
     11 C          -0.6360   -1.8940   -0.3750 C.2     1  LIG11       0.3407
     12 O          -0.2489   -2.8999    0.1932 O.2     1  LIG11      -0.2449
     13 O          -1.4952   -1.8489   -1.4252 O.3     1  LIG11      -0.4644
     14 C           2.1977   -1.2421    0.4021 C.3     1  LIG11       0.0022
     15 C           2.3470   -1.8256    1.8210 C.3     1  LIG11      -0.0448
     16 C           3.8311   -1.7413    2.1573 C.3     1  LIG11      -0.0524
     17 C           4.3127   -0.5313    1.3782 C.3     1  LIG11      -0.0524
     18 C           3.5904   -0.6782    0.0471 C.3     1  LIG11      -0.0448
     19 H          -2.0703    4.9614    0.7159 H       1  LIG11       0.0618
     20 C          -1.9475   -3.1331   -1.8578 C.3     1  LIG11       0.0820
     21 H           0.2829    5.3696    1.4024 H       1  LIG11       0.0618
     22 H           1.9117    3.5062    1.4000 H       1  LIG11       0.0639
     23 H          -2.7752    2.6948    0.0348 H       1  LIG11       0.0624
     24 H          -2.2003    0.2926   -0.3269 H       1  LIG11       0.0633
     25 H           1.9933   -2.0355   -0.3252 H       1  LIG11       0.0364
     26 H           1.9935   -2.8610    1.8706 H       1  LIG11       0.0272
     27 H           1.7710   -1.2534    2.5590 H       1  LIG11       0.0272
     28 H           4.3461   -2.6447    1.8094 H       1  LIG11       0.0265
     29 H           4.0074   -1.6431    3.2323 H       1  LIG11       0.0265
     30 H           5.4000   -0.5192    1.2603 H       1  LIG11       0.0265
     31 H           4.0106    0.3943    1.8813 H       1  LIG11       0.0265
     32 H           4.1279   -1.4153   -0.5641 H       1  LIG11       0.0272
     33 H           3.5700    0.2560   -0.5226 H       1  LIG11       0.0272
     34 H          -2.4951   -3.6368   -1.0550 H       1  LIG11       0.0661
     35 H          -1.1035   -3.7432   -2.1946 H       1  LIG11       0.0661
     36 H          -2.6273   -2.9861   -2.7016 H       1  LIG11       0.0661
@<TRIPOS>BOND
     1    36    20    1
     2    35    20    1
     3    20    13    1
     4    20    34    1
     5    13    11    1
     6    32    18    1
     7    33    18    1
     8    11     9    1
     9    11    12    2
    10    24    10    1
    11    25    14    1
    12    10     9   ar
    13    10     5   ar
    14     9     8   ar
    15    23     6    1
    16    18    14    1
    17    18    17    1
    18     5     6   ar
    19     5     4   ar
    20     6     1   ar
    21     8    14    1
    22     8     7   ar
    23    14    15    1
    24    19     1    1
    25     1     2   ar
    26     4     7   ar
    27     4     3   ar
    28     3     2   ar
    29     3    22    1
    30     2    21    1
    31    30    17    1
    32    17    31    1
    33    17    16    1
    34    28    16    1
    35    15    26    1
    36    15    16    1
    37    15    27    1
    38    16    29    1
