@<TRIPOS>MOLECULE
3_7D
 55 58 0 0 0
SMALL
GASTEIGER

@<TRIPOS>ATOM
      1 C          -1.3168    4.1810    0.7067 C.ar    1  LIG11      -0.0611
      2 C          -0.0081    4.3798    1.1080 C.ar    1  LIG11      -0.0597
      3 C           0.8739    3.3021    1.1089 C.ar    1  LIG11      -0.0357
      4 C           0.4814    2.0270    0.7259 C.ar    1  LIG11       0.0716
      5 C          -0.8561    1.7834    0.3348 C.ar    1  LIG11       0.0046
      6 C          -1.7333    2.9041    0.3232 C.ar    1  LIG11      -0.0523
      7 N           1.4254    1.0820    0.7390 N.ar    1  LIG11      -0.2505
      8 C           1.1201   -0.1737    0.3323 C.ar    1  LIG11       0.0593
      9 C          -0.1829   -0.5317   -0.0360 C.ar    1  LIG11       0.0845
     10 C          -1.2149    0.4371   -0.0258 C.ar    1  LIG11      -0.0194
     11 C          -0.4044   -1.9136   -0.4815 C.2     1  LIG11       0.3410
     12 O          -0.5314   -2.2507   -1.6445 O.2     1  LIG11      -0.2449
     13 O          -0.4202   -2.7121    0.6145 O.3     1  LIG11      -0.4644
     14 C           2.2884   -1.1503    0.3271 C.3     1  LIG11       0.0022
     15 C           2.6520   -1.5618    1.7635 C.3     1  LIG11      -0.0448
     16 C           3.8325   -2.5310    1.7854 C.3     1  LIG11      -0.0525
     17 C           5.0435   -1.9631    1.0511 C.3     1  LIG11      -0.0530
     18 C           4.6932   -1.5398   -0.3726 C.3     1  LIG11      -0.0525
     19 C           3.5177   -0.5642   -0.3947 C.3     1  LIG11      -0.0448
     20 C          -0.5823   -4.0991    0.3149 C.3     1  LIG11       0.0820
     21 C          -2.6673    0.1214   -0.4094 C.3     1  LIG11      -0.0144
     22 C          -3.2912   -1.1704    0.1555 C.3     1  LIG11      -0.0462
     23 C          -4.7804   -1.2507   -0.1881 C.3     1  LIG11      -0.0525
     24 C          -5.0017   -1.1610   -1.6963 C.3     1  LIG11      -0.0530
     25 C          -4.3659    0.0931   -2.2905 C.3     1  LIG11      -0.0525
     26 C          -2.8849    0.2171   -1.9292 C.3     1  LIG11      -0.0462
     27 H          -2.0162    5.0129    0.6859 H       1  LIG11       0.0618
     28 H           0.3343    5.3657    1.4096 H       1  LIG11       0.0618
     29 H           1.9069    3.4629    1.4110 H       1  LIG11       0.0639
     30 H          -2.7656    2.8129   -0.0019 H       1  LIG11       0.0624
     31 H           2.0193   -2.0567   -0.2270 H       1  LIG11       0.0364
     32 H           1.7909   -2.0314    2.2543 H       1  LIG11       0.0272
     33 H           2.9047   -0.6758    2.3609 H       1  LIG11       0.0272
     34 H           4.1037   -2.7572    2.8227 H       1  LIG11       0.0265
     35 H           3.5342   -3.4784    1.3196 H       1  LIG11       0.0265
     36 H           5.4311   -1.0980    1.6031 H       1  LIG11       0.0265
     37 H           5.8440   -2.7110    1.0268 H       1  LIG11       0.0265
     38 H           5.5664   -1.0750   -0.8441 H       1  LIG11       0.0265
     39 H           4.4433   -2.4271   -0.9673 H       1  LIG11       0.0265
     40 H           3.8330    0.3760    0.0760 H       1  LIG11       0.0272
     41 H           3.2625   -0.3241   -1.4343 H       1  LIG11       0.0272
     42 H          -1.5355   -4.2750   -0.1931 H       1  LIG11       0.0661
     43 H          -0.5852   -4.6511    1.2587 H       1  LIG11       0.0661
     44 H           0.2534   -4.4579   -0.2941 H       1  LIG11       0.0661
     45 H          -3.2907    0.8956    0.0502 H       1  LIG11       0.0349
     46 H          -3.1604   -1.2107    1.2433 H       1  LIG11       0.0271
     47 H          -2.8248   -2.0638   -0.2619 H       1  LIG11       0.0271
     48 H          -5.1944   -2.1928    0.1888 H       1  LIG11       0.0265
     49 H          -5.3213   -0.4395    0.3142 H       1  LIG11       0.0265
     50 H          -4.5748   -2.0482   -2.1802 H       1  LIG11       0.0265
     51 H          -6.0761   -1.1662   -1.9116 H       1  LIG11       0.0265
     52 H          -4.4783    0.0819   -3.3806 H       1  LIG11       0.0265
     53 H          -4.9018    0.9780   -1.9254 H       1  LIG11       0.0265
     54 H          -2.3229   -0.5680   -2.4473 H       1  LIG11       0.0271
     55 H          -2.5063    1.1731   -2.3112 H       1  LIG11       0.0271
@<TRIPOS>BOND
     1    52    25    1
     2    54    26    1
     3    55    26    1
     4    25    26    1
     5    25    53    1
     6    25    24    1
     7    50    24    1
     8    26    21    1
     9    51    24    1
    10    24    23    1
    11    12    11    2
    12    41    19    1
    13    39    18    1
    14    38    18    1
    15    11     9    1
    16    11    13    1
    17    21    10    1
    18    21    45    1
    19    21    22    1
    20    19    18    1
    21    19    40    1
    22    19    14    1
    23    18    17    1
    24    44    20    1
    25    47    22    1
    26    31    14    1
    27    42    20    1
    28    23    22    1
    29    23    48    1
    30    23    49    1
    31     9    10   ar
    32     9     8   ar
    33    10     5   ar
    34    30     6    1
    35    22    46    1
    36    20    13    1
    37    20    43    1
    38     6     5   ar
    39     6     1   ar
    40    14     8    1
    41    14    15    1
    42     8     7   ar
    43     5     4   ar
    44    27     1    1
    45     1     2   ar
    46     4     7   ar
    47     4     3   ar
    48    37    17    1
    49    17    36    1
    50    17    16    1
    51     2     3   ar
    52     2    28    1
    53     3    29    1
    54    35    16    1
    55    15    16    1
    56    15    32    1
    57    15    33    1
    58    16    34    1
