@<TRIPOS>MOLECULE
3_7E
 47 51 0 0 0
SMALL
GASTEIGER

@<TRIPOS>ATOM
      1 C          -1.3530    4.1487    0.7200 C.ar    1  LIG11      -0.0611
      2 C          -0.0348    4.3760    1.0985 C.ar    1  LIG11      -0.0597
      3 C           0.8821    3.3206    1.0927 C.ar    1  LIG11      -0.0357
      4 C           0.5141    2.0357    0.7164 C.ar    1  LIG11       0.0713
      5 C          -0.8176    1.8121    0.3351 C.ar    1  LIG11       0.0012
      6 C          -1.7468    2.8684    0.3376 C.ar    1  LIG11      -0.0525
      7 N           1.4299    1.0501    0.7263 N.ar    1  LIG11      -0.2502
      8 C           1.0966   -0.2265    0.3672 C.ar    1  LIG11       0.0621
      9 C          -0.2122   -0.5099   -0.0322 C.ar    1  LIG11       0.0813
     10 C          -1.1695    0.5158   -0.0447 C.ar    1  LIG11      -0.0368
     11 C          -0.6787   -1.8253   -0.4895 C.2     1  LIG11       0.3407
     12 O          -0.3224   -2.3759   -1.5143 O.2     1  LIG11      -0.2449
     13 O          -1.5741   -2.2881    0.4185 O.3     1  LIG11      -0.4644
     14 C           2.2579   -1.2347    0.4382 C.3     1  LIG11       0.0145
     15 C           1.8831   -2.5732    1.1372 C.3     1  LIG11      -0.0390
     16 C           3.0810   -3.5388    1.1826 C.3     1  LIG11      -0.0397
     17 C           4.2193   -2.9043    1.9897 C.3     1  LIG11      -0.0473
     18 C           4.6517   -1.5921    1.3260 C.3     1  LIG11      -0.0397
     19 C           3.4507   -0.6342    1.2678 C.3     1  LIG11      -0.0390
     20 C          -2.1118   -3.5707    0.0936 C.3     1  LIG11       0.0820
     21 C           5.1377   -1.8749   -0.1026 C.3     1  LIG11      -0.0473
     22 C           4.0026   -2.5031   -0.9239 C.3     1  LIG11      -0.0397
     23 C           3.5592   -3.8136   -0.2531 C.3     1  LIG11      -0.0473
     24 C           2.8127   -1.5270   -0.9817 C.3     1  LIG11      -0.0390
     25 H          -2.0710    4.9648    0.7217 H       1  LIG11       0.0618
     26 H           0.2859    5.3704    1.3982 H       1  LIG11       0.0618
     27 H           1.9121    3.5044    1.3893 H       1  LIG11       0.0639
     28 H          -2.7794    2.6980    0.0415 H       1  LIG11       0.0624
     29 H          -2.1879    0.2973   -0.3594 H       1  LIG11       0.0633
     30 H           1.0773   -3.0942    0.6171 H       1  LIG11       0.0277
     31 H           1.5191   -2.3789    2.1547 H       1  LIG11       0.0277
     32 H           2.7762   -4.4794    1.6552 H       1  LIG11       0.0301
     33 H           5.0696   -3.5947    2.0482 H       1  LIG11       0.0271
     34 H           3.8909   -2.7155    3.0191 H       1  LIG11       0.0271
     35 H           5.4609   -1.1348    1.9065 H       1  LIG11       0.0301
     36 H           3.7918    0.3123    0.8263 H       1  LIG11       0.0277
     37 H           3.1201   -0.4021    2.2896 H       1  LIG11       0.0277
     38 H          -1.3152   -4.3198    0.0451 H       1  LIG11       0.0661
     39 H          -2.8084   -3.8569    0.8863 H       1  LIG11       0.0661
     40 H          -2.6611   -3.5268   -0.8521 H       1  LIG11       0.0661
     41 H           6.0022   -2.5497   -0.0786 H       1  LIG11       0.0271
     42 H           5.4738   -0.9446   -0.5767 H       1  LIG11       0.0271
     43 H           4.3560   -2.7103   -1.9403 H       1  LIG11       0.0301
     44 H           2.7540   -4.2789   -0.8349 H       1  LIG11       0.0271
     45 H           4.3933   -4.5261   -0.2381 H       1  LIG11       0.0271
     46 H           2.0423   -1.9546   -1.6291 H       1  LIG11       0.0277
     47 H           3.1275   -0.5919   -1.4647 H       1  LIG11       0.0277
@<TRIPOS>BOND
     1    43    22    1
     2    46    24    1
     3    12    11    2
     4    47    24    1
     5    24    22    1
     6    24    14    1
     7    22    23    1
     8    22    21    1
     9    40    20    1
    10    44    23    1
    11    42    21    1
    12    11     9    1
    13    11    13    1
    14    29    10    1
    15    23    45    1
    16    23    16    1
    17    21    41    1
    18    21    18    1
    19    10     9   ar
    20    10     5   ar
    21     9     8   ar
    22    28     6    1
    23    38    20    1
    24    20    13    1
    25    20    39    1
    26     5     6   ar
    27     5     4   ar
    28     6     1   ar
    29     8    14    1
    30     8     7   ar
    31    14    15    1
    32    14    19    1
    33    30    15    1
    34     4     7   ar
    35     4     3   ar
    36     1    25    1
    37     1     2   ar
    38    36    19    1
    39     3     2   ar
    40     3    27    1
    41     2    26    1
    42    15    16    1
    43    15    31    1
    44    16    32    1
    45    16    17    1
    46    19    18    1
    47    19    37    1
    48    18    35    1
    49    18    17    1
    50    17    33    1
    51    17    34    1
