@<TRIPOS>MOLECULE
4_2H
 55 58 0 0 0
SMALL
GASTEIGER

@<TRIPOS>ATOM
      1 C          -1.3425    4.1583    0.7070 C.ar    1  LIG11      -0.0608
      2 C          -0.0343    4.3849    1.0992 C.ar    1  LIG11      -0.0563
      3 C           0.9019    3.3354    1.1144 C.ar    1  LIG11      -0.0183
      4 C           0.5173    2.0377    0.7290 C.ar    1  LIG11       0.0755
      5 C          -0.8296    1.7894    0.3375 C.ar    1  LIG11       0.0041
      6 C          -1.7331    2.8778    0.3308 C.ar    1  LIG11      -0.0523
      7 N           1.4397    1.0604    0.7345 N.ar    1  LIG11      -0.2417
      8 C           1.0741   -0.1849    0.3457 C.ar    1  LIG11       0.1275
      9 C          -0.2057   -0.5265   -0.0450 C.ar    1  LIG11      -0.0271
     10 C          -1.1992    0.4586   -0.0362 C.ar    1  LIG11      -0.0329
     11 C           2.1556   -1.2201    0.3530 C.2     1  LIG11       0.2757
     12 O           1.9485   -2.3850    0.0246 O.2     1  LIG11      -0.2672
     13 N           3.3931   -0.7414    0.7630 N.am    1  LIG11      -0.2483
     14 C          -2.6246    0.0985   -0.4605 C.3     1  LIG11      -0.0152
     15 C          -3.0829   -1.3257   -0.0774 C.3     1  LIG11      -0.0462
     16 C          -4.5327   -1.5703   -0.4960 C.3     1  LIG11      -0.0525
     17 C          -4.7258   -1.3312   -1.9907 C.3     1  LIG11      -0.0530
     18 C          -4.2510    0.0578   -2.4067 C.3     1  LIG11      -0.0525
     19 C          -2.8105    0.3246   -1.9713 C.3     1  LIG11      -0.0462
     20 N           4.5026   -1.6041    0.8508 N.3     1  LIG11      -0.2541
     21 C           2.3401    3.6279    1.5470 C.3     1  LIG11      -0.0138
     22 C           2.4133    4.1399    2.9979 C.3     1  LIG11      -0.0461
     23 C           3.8560    4.4175    3.4182 C.3     1  LIG11      -0.0525
     24 C           4.5479    5.3779    2.4550 C.3     1  LIG11      -0.0530
     25 C           4.4777    4.8804    1.0141 C.3     1  LIG11      -0.0525
     26 C           3.0385    4.6036    0.5820 C.3     1  LIG11      -0.0461
     27 H          -2.0589    4.9758    0.6912 H       1  LIG11       0.0618
     28 H           0.2569    5.3918    1.3901 H       1  LIG11       0.0621
     29 H          -2.7665    2.7531    0.0198 H       1  LIG11       0.0624
     30 H          -0.4041   -1.5472   -0.3533 H       1  LIG11       0.0643
     31 H           3.4625    0.2382    1.0464 H       1  LIG11       0.1691
     32 H          -3.3138    0.7594    0.0789 H       1  LIG11       0.0349
     33 H          -2.9852   -1.4739    1.0049 H       1  LIG11       0.0271
     34 H          -2.4599   -2.0859   -0.5626 H       1  LIG11       0.0271
     35 H          -4.8190   -2.5986   -0.2480 H       1  LIG11       0.0265
     36 H          -5.1968   -0.9073    0.0719 H       1  LIG11       0.0265
     37 H          -4.1697   -2.0896   -2.5555 H       1  LIG11       0.0265
     38 H          -5.7836   -1.4524   -2.2501 H       1  LIG11       0.0265
     39 H          -4.3318    0.1637   -3.4944 H       1  LIG11       0.0265
     40 H          -4.9095    0.8149   -1.9633 H       1  LIG11       0.0265
     41 H          -2.1343   -0.3320   -2.5346 H       1  LIG11       0.0271
     42 H          -2.5426    1.3526   -2.2438 H       1  LIG11       0.0271
     43 H           4.7175   -1.9146   -0.1023 H       1  LIG11       0.1405
     44 H           4.1761   -2.4634    1.3082 H       1  LIG11       0.1405
     45 H           2.9228    2.6986    1.5223 H       1  LIG11       0.0349
     46 H           1.9728    3.4011    3.6788 H       1  LIG11       0.0271
     47 H           1.8302    5.0614    3.1167 H       1  LIG11       0.0271
     48 H           3.8700    4.8372    4.4304 H       1  LIG11       0.0265
     49 H           4.4133    3.4735    3.4564 H       1  LIG11       0.0265
     50 H           4.0755    6.3656    2.5230 H       1  LIG11       0.0265
     51 H           5.5956    5.5041    2.7503 H       1  LIG11       0.0265
     52 H           4.9260    5.6240    0.3454 H       1  LIG11       0.0265
     53 H           5.0712    3.9632    0.9150 H       1  LIG11       0.0265
     54 H           2.4964    5.5562    0.5325 H       1  LIG11       0.0271
     55 H           3.0383    4.1906   -0.4344 H       1  LIG11       0.0271
@<TRIPOS>BOND
     1    39    18    1
     2    37    17    1
     3    41    19    1
     4    18    17    1
     5    18    19    1
     6    18    40    1
     7    38    17    1
     8    42    19    1
     9    17    16    1
    10    19    14    1
    11    34    15    1
    12    16    35    1
    13    16    15    1
    14    16    36    1
    15    14    15    1
    16    14    10    1
    17    14    32    1
    18    55    26    1
    19    30     9    1
    20    43    20    1
    21    15    33    1
    22     9    10   ar
    23     9     8   ar
    24    10     5   ar
    25    29     6    1
    26    12    11    2
    27     6     5   ar
    28     6     1   ar
    29     5     4   ar
    30    52    25    1
    31     8    11    1
    32     8     7   ar
    33    11    13   am
    34    54    26    1
    35    26    25    1
    36    26    21    1
    37    27     1    1
    38     1     2   ar
    39     4     7   ar
    40     4     3   ar
    41    13    20    1
    42    13    31    1
    43    20    44    1
    44    53    25    1
    45    25    24    1
    46     2     3   ar
    47     2    28    1
    48     3    21    1
    49    45    21    1
    50    21    22    1
    51    24    50    1
    52    24    51    1
    53    24    23    1
    54    22    47    1
    55    22    23    1
    56    22    46    1
    57    23    49    1
    58    23    48    1
