@<TRIPOS>MOLECULE
CCR5_35
 76 79 0 0 0
SMALL
GASTEIGER

@<TRIPOS>ATOM
      1 C1         -4.0010    1.4181   -1.5025 C.3     1  BENZYL1111    0.0140
      2 C2         -4.4221    2.6774   -0.7137 C.ar    1  BENZYL1111   -0.0398
      3 C3         -5.7547    3.0951   -0.8273 C.ar    1  BENZYL1111   -0.0580
      4 C4         -6.2274    4.2030   -0.1186 C.ar    1  BENZYL1111   -0.0615
      5 C5         -5.3620    4.9220    0.7085 C.ar    1  BENZYL1111   -0.0617
      6 C6         -4.0249    4.5319    0.8114 C.ar    1  BENZYL1111   -0.0615
      7 C7         -3.5560    3.4246    0.0976 C.ar    1  BENZYL1111   -0.0580
      8 C          -4.9901    0.2585   -1.2849 C.ar    2  PHENYL2222   -0.0398
      9 C          -5.6221    0.0711   -0.0491 C.ar    2  PHENYL2222   -0.0580
     10 C          -6.5222   -0.9824    0.1347 C.ar    2  PHENYL2222   -0.0615
     11 C          -6.7959   -1.8612   -0.9165 C.ar    2  PHENYL2222   -0.0617
     12 C          -6.1657   -1.6837   -2.1508 C.ar    2  PHENYL2222   -0.0615
     13 C          -5.2660   -0.6292   -2.3318 C.ar    2  PHENYL2222   -0.0580
     14 C14        -2.5575    0.8832   -1.2692 C.3     1  BENZYL1111   -0.0017
     15 C15        -2.3592    0.2400    0.1332 C.3     1  BENZYL1111   -0.0310
     16 N16        -0.9278    0.1406    0.5264 N.4     3  CYCLOHEXYL3333    0.2353
     17 C2         -0.0761   -0.6726   -0.3774 C.3     3  CYCLOHEXYL3333   -0.0302
     18 C3          1.4185   -0.5265    0.0032 C.3     3  CYCLOHEXYL3333    0.0063
     19 C4          1.6596   -0.9245    1.4789 C.3     3  CYCLOHEXYL3333    0.0356
     20 C5          0.7289   -0.0753    2.3847 C.3     3  CYCLOHEXYL3333    0.0063
     21 C6         -0.7501   -0.2433    1.9509 C.3     3  CYCLOHEXYL3333   -0.0302
     22 N22         3.1102   -0.8281    1.7332 N.am    3  CYCLOHEXYL3333   -0.2980
     23 C23         3.7533    0.4259    2.1572 C.3     3  CYCLOHEXYL3333    0.0121
     24 C24         3.8631    0.5295    3.7010 C.3     3  CYCLOHEXYL3333   -0.0493
     25 C25         3.8672   -1.9354    1.4698 C.2     3  CYCLOHEXYL3333    0.2201
     26 O26         3.3537   -2.9789    1.0983 O.2     3  CYCLOHEXYL3333   -0.2752
     27 C27         5.3757   -1.9751    1.5765 C.3     3  CYCLOHEXYL3333    0.0493
     28 C           6.0434   -1.2211    0.4161 C.ar    4  PHENYL4444   -0.0385
     29 C           7.2268   -0.5036    0.6274 C.ar    4  PHENYL4444   -0.0563
     30 C           7.8004    0.2364   -0.4108 C.ar    4  PHENYL4444   -0.0366
     31 C           7.1931    0.2690   -1.6689 C.ar    4  PHENYL4444    0.0879
     32 C           6.0348   -0.4787   -1.8948 C.ar    4  PHENYL4444   -0.0366
     33 C           5.4732   -1.2348   -0.8623 C.ar    4  PHENYL4444   -0.0563
     34 S1          7.9034    1.2149   -2.9942 S.O2    5  SULFONYL5555   -0.0059
     35 O           6.8344    1.7611   -3.8067 O.2     5  SULFONYL5555   -0.1696
     36 O           8.9214    2.1001   -2.4630 O.2     5  SULFONYL5555   -0.1696
     37 C37         8.7170   -0.0906   -3.9280 C.3     5  SULFONYL5555    0.0596
     38 H          -4.0161    1.7723   -2.5121 H       1  BENZYL1111    0.0399
     39 H          -6.3981    2.5758   -1.4448 H       1  BENZYL1111    0.0620
     40 H          -7.2150    4.4894   -0.2064 H       1  BENZYL1111    0.0618
     41 H          -5.7081    5.7360    1.2401 H       1  BENZYL1111    0.0618
     42 H          -3.3800    5.0633    1.4170 H       1  BENZYL1111    0.0618
     43 H          -2.5625    3.1545    0.1686 H       1  BENZYL1111    0.0620
     44 H          -5.4217    0.7156    0.7316 H       2  PHENYL2222    0.0620
     45 H          -6.9852   -1.1113    1.0480 H       2  PHENYL2222    0.0618
     46 H          -7.4611   -2.6386   -0.7817 H       2  PHENYL2222    0.0618
     47 H          -6.3645   -2.3314   -2.9293 H       2  PHENYL2222    0.0618
     48 H          -4.8013   -0.5040   -3.2447 H       2  PHENYL2222    0.0620
     49 H          -1.8543    1.6787   -1.4017 H       1  BENZYL1111    0.0326
     50 H          -2.3939    0.1097   -1.9902 H       1  BENZYL1111    0.0326
     51 H          -2.8055   -0.7323    0.1497 H       1  BENZYL1111    0.0815
     52 H          -2.8363    0.8822    0.8437 H       1  BENZYL1111    0.0815
     53 H          -0.5813    1.0936    0.4162 H       3  CYCLOHEXYL3333    0.2033
     54 H          -0.2272   -0.3719   -1.3931 H       3  CYCLOHEXYL3333    0.0815
     55 H          -0.3542   -1.7004   -0.2720 H       3  CYCLOHEXYL3333    0.0815
     56 H           2.0207   -1.1319   -0.6416 H       3  CYCLOHEXYL3333    0.0335
     57 H           1.6941    0.5006   -0.1148 H       3  CYCLOHEXYL3333    0.0335
     58 H           1.3954   -1.9356    1.7087 H       3  CYCLOHEXYL3333    0.0504
     59 H           0.8470   -0.3656    3.4078 H       3  CYCLOHEXYL3333    0.0335
     60 H           0.9997    0.9547    2.2818 H       3  CYCLOHEXYL3333    0.0335
     61 H          -1.0630   -1.2557    2.0995 H       3  CYCLOHEXYL3333    0.0815
     62 H          -1.3543    0.4027    2.5529 H       3  CYCLOHEXYL3333    0.0815
     63 H           3.2050    1.2618    1.7757 H       3  CYCLOHEXYL3333    0.0462
     64 H           4.7471    0.4305    1.7607 H       3  CYCLOHEXYL3333    0.0462
     65 H           2.8828    0.5274    4.1297 H       3  CYCLOHEXYL3333    0.0245
     66 H           4.3858    1.4217    3.9762 H       3  CYCLOHEXYL3333    0.0245
     67 H           4.4110   -0.3114    4.0719 H       3  CYCLOHEXYL3333    0.0245
     68 H           5.7130   -2.9904    1.5930 H       3  CYCLOHEXYL3333    0.0407
     69 H           5.6541   -1.4891    2.4882 H       3  CYCLOHEXYL3333    0.0407
     70 H           7.6785   -0.5210    1.5551 H       4  PHENYL4444    0.0621
     71 H           8.6746    0.7600   -0.2476 H       4  PHENYL4444    0.0637
     72 H           5.5924   -0.4727   -2.8272 H       4  PHENYL4444    0.0637
     73 H           4.6333   -1.8065   -1.0434 H       4  PHENYL4444    0.0621
     74 H           9.2044    0.3316   -4.7819 H       5  SULFONYL5555    0.0468
     75 H           8.0034   -0.8264   -4.2349 H       5  SULFONYL5555    0.0468
     76 H           9.4464   -0.5658   -3.3059 H       5  SULFONYL5555    0.0468
@<TRIPOS>BOND
     1     1     2    1
     2     2     3   ar
     3     2     7   ar
     4     7     6   ar
     5     6     5   ar
     6     5     4   ar
     7     4     3   ar
     8     8     9   ar
     9     8    13   ar
    10    13    12   ar
    11    12    11   ar
    12    11    10   ar
    13    10     9   ar
    14     1     8    1
    15     1    14    1
    16    14    15    1
    17    16    17    1
    18    16    21    1
    19    21    20    1
    20    20    19    1
    21    19    18    1
    22    18    17    1
    23    15    16    1
    24    19    22    1
    25    22    23    1
    26    23    24    1
    27    22    25   am
    28    25    26    2
    29    25    27    1
    30    28    29   ar
    31    28    33   ar
    32    33    32   ar
    33    32    31   ar
    34    31    30   ar
    35    30    29   ar
    36    27    28    1
    37    34    35    2
    38    34    36    2
    39    31    34    1
    40    34    37    1
    41     1    38    1
    42     3    39    1
    43     4    40    1
    44     5    41    1
    45     6    42    1
    46     7    43    1
    47     9    44    1
    48    10    45    1
    49    11    46    1
    50    12    47    1
    51    13    48    1
    52    14    49    1
    53    14    50    1
    54    15    51    1
    55    15    52    1
    56    16    53    1
    57    17    54    1
    58    17    55    1
    59    18    56    1
    60    18    57    1
    61    19    58    1
    62    20    59    1
    63    20    60    1
    64    21    61    1
    65    21    62    1
    66    23    63    1
    67    23    64    1
    68    24    65    1
    69    24    66    1
    70    24    67    1
    71    27    68    1
    72    27    69    1
    73    29    70    1
    74    30    71    1
    75    32    72    1
    76    33    73    1
    77    37    74    1
    78    37    75    1
    79    37    76    1
