@<TRIPOS>MOLECULE
CCR5_21
 77 81 0 0 0
SMALL
GASTEIGER

@<TRIPOS>ATOM
      1 C1         -3.9927    1.4311   -1.5006 C.3     1  BENZYL1111    0.0140
      2 C2         -4.4262    2.6781   -0.6988 C.ar    1  BENZYL1111   -0.0398
      3 C3         -5.7675    3.0732   -0.7901 C.ar    1  BENZYL1111   -0.0580
      4 C4         -6.2516    4.1611   -0.0584 C.ar    1  BENZYL1111   -0.0615
      5 C5         -5.3888    4.8849    0.7671 C.ar    1  BENZYL1111   -0.0617
      6 C6         -4.0421    4.5223    0.8422 C.ar    1  BENZYL1111   -0.0615
      7 C7         -3.5617    3.4360    0.1042 C.ar    1  BENZYL1111   -0.0580
      8 C          -4.9768    0.2632   -1.3046 C.ar    2  PHENYL2222   -0.0398
      9 C          -5.6057    0.0489   -0.0717 C.ar    2  PHENYL2222   -0.0580
     10 C          -6.5019   -1.0111    0.0928 C.ar    2  PHENYL2222   -0.0615
     11 C          -6.7741   -1.8700   -0.9751 C.ar    2  PHENYL2222   -0.0617
     12 C          -6.1466   -1.6659   -2.2067 C.ar    2  PHENYL2222   -0.0615
     13 C          -5.2512   -0.6047   -2.3684 C.ar    2  PHENYL2222   -0.0580
     14 C14        -2.5497    0.8969   -1.2617 C.3     1  BENZYL1111   -0.0017
     15 C15        -2.3523    0.2658    0.1460 C.3     1  BENZYL1111   -0.0310
     16 N16        -0.9124    0.1567    0.5048 N.4     3  CYCLOHEXYL3333    0.2353
     17 C2         -0.1506   -0.8447   -0.2835 C.3     3  CYCLOHEXYL3333   -0.0302
     18 C3          1.3682   -0.7409    0.0054 C.3     3  CYCLOHEXYL3333    0.0063
     19 C4          1.6547   -0.9061    1.5181 C.3     3  CYCLOHEXYL3333    0.0353
     20 C5          0.8325    0.1622    2.2850 C.3     3  CYCLOHEXYL3333    0.0063
     21 C6         -0.6765    0.0174    1.9645 C.3     3  CYCLOHEXYL3333   -0.0302
     22 N22         3.1107   -0.8409    1.7270 N.am    3  CYCLOHEXYL3333   -0.3008
     23 C23         3.7738    0.4152    2.1035 C.3     3  CYCLOHEXYL3333    0.0035
     24 C           7.8451    1.3851   -2.4415 C.ar    5  PHENYL5555   -0.0179
     25 C25         3.8293   -1.9722    1.4673 C.2     3  CYCLOHEXYL3333    0.2199
     26 O26         3.2700   -3.0062    1.1381 O.2     3  CYCLOHEXYL3333   -0.2752
     27 C27         5.3364   -2.0516    1.5435 C.3     3  CYCLOHEXYL3333    0.0493
     28 C           6.0055   -1.1529    0.4929 C.ar    4  PHENYL4444   -0.0386
     29 C           7.1761   -0.4498    0.8002 C.ar    4  PHENYL4444   -0.0575
     30 C           7.7759    0.3767   -0.1545 C.ar    4  PHENYL4444   -0.0538
     31 C           7.2085    0.5105   -1.4252 C.ar    4  PHENYL4444   -0.0179
     32 C           6.0377   -0.1878   -1.7343 C.ar    4  PHENYL4444   -0.0538
     33 C           5.4484   -1.0271   -0.7849 C.ar    4  PHENYL4444   -0.0575
     34 C           8.1154    2.7255   -2.1477 C.ar    5  PHENYL5555   -0.0540
     35 C           8.7199    3.5460   -3.1048 C.ar    5  PHENYL5555   -0.0612
     36 C           9.0470    3.0300   -4.3622 C.ar    5  PHENYL5555   -0.0617
     37 C           8.7732    1.6919   -4.6598 C.ar    5  PHENYL5555   -0.0612
     38 C           8.1773    0.8701   -3.6987 C.ar    5  PHENYL5555   -0.0540
     39 H          -4.0014    1.8005   -2.5048 H       1  BENZYL1111    0.0399
     40 H          -6.4088    2.5520   -1.4082 H       1  BENZYL1111    0.0620
     41 H          -7.2457    4.4292   -0.1281 H       1  BENZYL1111    0.0618
     42 H          -5.7437    5.6822    1.3179 H       1  BENZYL1111    0.0618
     43 H          -3.3986    5.0585    1.4451 H       1  BENZYL1111    0.0618
     44 H          -2.5607    3.1895    0.1510 H       1  BENZYL1111    0.0620
     45 H          -5.4059    0.6784    0.7213 H       2  PHENYL2222    0.0620
     46 H          -6.9630   -1.1595    1.0040 H       2  PHENYL2222    0.0618
     47 H          -7.4363   -2.6523   -0.8546 H       2  PHENYL2222    0.0618
     48 H          -6.3443   -2.2989   -2.9974 H       2  PHENYL2222    0.0618
     49 H          -4.7886   -0.4598   -3.2794 H       2  PHENYL2222    0.0620
     50 H          -1.8458    1.6906   -1.4009 H       1  BENZYL1111    0.0326
     51 H          -2.3867    0.1169   -1.9757 H       1  BENZYL1111    0.0326
     52 H          -2.8091   -0.7013    0.1780 H       1  BENZYL1111    0.0815
     53 H          -2.8192    0.9103    0.8612 H       1  BENZYL1111    0.0815
     54 H          -0.5276    1.0607    0.2306 H       3  CYCLOHEXYL3333    0.2033
     55 H          -0.3346   -0.7045   -1.3282 H       3  CYCLOHEXYL3333    0.0815
     56 H          -0.4807   -1.8204    0.0062 H       3  CYCLOHEXYL3333    0.0815
     57 H           1.8985   -1.4852   -0.5511 H       3  CYCLOHEXYL3333    0.0335
     58 H           1.7026    0.2296   -0.2964 H       3  CYCLOHEXYL3333    0.0335
     59 H           1.3453   -1.8553    1.9030 H       3  CYCLOHEXYL3333    0.0504
     60 H           0.9955    0.0651    3.3381 H       3  CYCLOHEXYL3333    0.0335
     61 H           1.1564    1.1323    1.9707 H       3  CYCLOHEXYL3333    0.0335
     62 H          -1.0354   -0.9310    2.3059 H       3  CYCLOHEXYL3333    0.0815
     63 H          -1.2094    0.7941    2.4721 H       3  CYCLOHEXYL3333    0.0815
     64 H           3.0368    1.1745    2.2624 H       3  CYCLOHEXYL3333    0.0429
     65 H           4.4575    0.7171    1.3378 H       3  CYCLOHEXYL3333    0.0429
     66 H           4.3245    0.2647    3.0084 H       3  CYCLOHEXYL3333    0.0429
     67 H           5.6544   -3.0646    1.4112 H       3  CYCLOHEXYL3333    0.0407
     68 H           5.6344   -1.7033    2.5103 H       3  CYCLOHEXYL3333    0.0407
     69 H           7.5989   -0.5421    1.7371 H       4  PHENYL4444    0.0621
     70 H           8.6403    0.8897    0.0795 H       4  PHENYL4444    0.0624
     71 H           5.6072   -0.0833   -2.6664 H       4  PHENYL4444    0.0624
     72 H           4.5970   -1.5575   -1.0275 H       4  PHENYL4444    0.0621
     73 H           7.8681    3.1098   -1.2224 H       5  PHENYL5555    0.0624
     74 H           8.9247    4.5329   -2.8830 H       5  PHENYL5555    0.0618
     75 H           9.4902    3.6363   -5.0700 H       5  PHENYL5555    0.0618
     76 H           9.0109    1.3108   -5.5889 H       5  PHENYL5555    0.0618
     77 H           7.9820   -0.1194   -3.9174 H       5  PHENYL5555    0.0624
@<TRIPOS>BOND
     1     1     2    1
     2     2     3   ar
     3     2     7   ar
     4     7     6   ar
     5     6     5   ar
     6     5     4   ar
     7     4     3   ar
     8     8     9   ar
     9     8    13   ar
    10    13    12   ar
    11    12    11   ar
    12    11    10   ar
    13    10     9   ar
    14     1     8    1
    15     1    14    1
    16    14    15    1
    17    16    17    1
    18    16    21    1
    19    21    20    1
    20    20    19    1
    21    19    18    1
    22    18    17    1
    23    15    16    1
    24    19    22    1
    25    22    23    1
    26    24    34   ar
    27    22    25   am
    28    25    26    2
    29    25    27    1
    30    28    29   ar
    31    28    33   ar
    32    33    32   ar
    33    32    31   ar
    34    31    30   ar
    35    30    29   ar
    36    27    28    1
    37    24    38   ar
    38    38    37   ar
    39    37    36   ar
    40    36    35   ar
    41    35    34   ar
    42    31    24    1
    43     1    39    1
    44     3    40    1
    45     4    41    1
    46     5    42    1
    47     6    43    1
    48     7    44    1
    49     9    45    1
    50    10    46    1
    51    11    47    1
    52    12    48    1
    53    13    49    1
    54    14    50    1
    55    14    51    1
    56    15    52    1
    57    15    53    1
    58    16    54    1
    59    17    55    1
    60    17    56    1
    61    18    57    1
    62    18    58    1
    63    19    59    1
    64    20    60    1
    65    20    61    1
    66    21    62    1
    67    21    63    1
    68    23    64    1
    69    23    65    1
    70    23    66    1
    71    27    67    1
    72    27    68    1
    73    29    69    1
    74    30    70    1
    75    32    71    1
    76    33    72    1
    77    34    73    1
    78    35    74    1
    79    36    75    1
    80    37    76    1
    81    38    77    1
