@<TRIPOS>MOLECULE
CCR5_64
 80 83 0 0 0
SMALL
GASTEIGER

@<TRIPOS>ATOM
      1 C1         -4.0017    1.4174   -1.5109 C.3     1  BENZYL1111    0.0140
      2 C2         -4.4156    2.6790   -0.7221 C.ar    1  BENZYL1111   -0.0398
      3 C3         -5.7400    3.1162   -0.8562 C.ar    1  BENZYL1111   -0.0580
      4 C4         -6.2101    4.2248   -0.1468 C.ar    1  BENZYL1111   -0.0615
      5 C5         -5.3499    4.9243    0.7021 C.ar    1  BENZYL1111   -0.0617
      6 C6         -4.0200    4.5155    0.8244 C.ar    1  BENZYL1111   -0.0615
      7 C7         -3.5533    3.4080    0.1096 C.ar    1  BENZYL1111   -0.0580
      8 C          -4.9950    0.2642   -1.2790 C.ar    2  PHENYL2222   -0.0396
      9 C          -5.6269    0.0948   -0.0402 C.ar    2  PHENYL2222   -0.0545
     10 C          -6.5244   -0.9579    0.1592 C.ar    2  PHENYL2222   -0.0197
     11 C          -6.7909   -1.8554   -0.8767 C.ar    2  PHENYL2222    0.1201
     12 C          -6.1712   -1.6890   -2.1169 C.ar    2  PHENYL2222   -0.0197
     13 C          -5.2744   -0.6352   -2.3151 C.ar    2  PHENYL2222   -0.0545
     14 C14        -2.5581    0.8795   -1.2844 C.3     1  BENZYL1111   -0.0017
     15 C15        -2.3636    0.2141    0.1082 C.3     1  BENZYL1111   -0.0310
     16 N16        -0.9357    0.1141    0.5135 N.4     3  CYCLOHEXYL3333    0.2353
     17 C2         -0.0588   -0.6519   -0.4076 C.3     3  CYCLOHEXYL3333   -0.0302
     18 C3          1.4281   -0.4925   -0.0008 C.3     3  CYCLOHEXYL3333    0.0063
     19 C4          1.6562   -0.9364    1.4639 C.3     3  CYCLOHEXYL3333    0.0356
     20 C5          0.6952   -0.1410    2.3866 C.3     3  CYCLOHEXYL3333    0.0063
     21 C6         -0.7733   -0.3220    1.9247 C.3     3  CYCLOHEXYL3333   -0.0302
     22 N22         3.0994   -0.8162    1.7500 N.am    3  CYCLOHEXYL3333   -0.2980
     23 C23         3.7061    0.4409    2.2164 C.3     3  CYCLOHEXYL3333    0.0121
     24 C24         3.7845    0.5143    3.7640 C.3     3  CYCLOHEXYL3333   -0.0493
     25 C25         3.8853   -1.9010    1.4786 C.2     3  CYCLOHEXYL3333    0.2201
     26 O26         3.4032   -2.9439    1.0660 O.2     3  CYCLOHEXYL3333   -0.2752
     27 C27         5.3908   -1.9154    1.6285 C.3     3  CYCLOHEXYL3333    0.0493
     28 C           6.0725   -1.1361    0.4936 C.ar    4  PHENYL4444   -0.0385
     29 C           7.1765   -0.3163    0.7566 C.ar    4  PHENYL4444   -0.0563
     30 C           7.7592    0.4344   -0.2685 C.ar    4  PHENYL4444   -0.0366
     31 C           7.2452    0.3700   -1.5662 C.ar    4  PHENYL4444    0.0879
     32 C           6.1704   -0.4792   -1.8412 C.ar    4  PHENYL4444   -0.0366
     33 C           5.5908   -1.2335   -0.8171 C.ar    4  PHENYL4444   -0.0563
     34 S1          7.9900    1.3193   -2.8696 S.O2    5  SULFONYL5555   -0.0059
     35 O           7.0225    1.5116   -3.9320 O.2     5  SULFONYL5555   -0.1696
     36 O           8.6620    2.4697   -2.2977 O.2     5  SULFONYL5555   -0.1696
     37 O37        -7.6727   -2.9158   -0.6724 O.3     6  SULFONYL6666   -0.4951
     38 C40         9.2382    0.1556   -3.4396 C.3     5  SULFONYL5555    0.0596
     39 C41        -7.0332   -4.1027   -0.1772 C.3     6  SULFONYL6666    0.0788
     40 H          -4.0192    1.7655   -2.5226 H       1  BENZYL1111    0.0399
     41 H          -6.3792    2.6110   -1.4896 H       1  BENZYL1111    0.0620
     42 H          -7.1917    4.5261   -0.2502 H       1  BENZYL1111    0.0618
     43 H          -5.6945    5.7378    1.2355 H       1  BENZYL1111    0.0618
     44 H          -3.3787    5.0333    1.4453 H       1  BENZYL1111    0.0618
     45 H          -2.5647    3.1243    0.1949 H       1  BENZYL1111    0.0620
     46 H          -5.4283    0.7518    0.7304 H       2  PHENYL2222    0.0622
     47 H          -6.9905   -1.0719    1.0728 H       2  PHENYL2222    0.0654
     48 H          -6.3754   -2.3443   -2.8875 H       2  PHENYL2222    0.0654
     49 H          -4.8149   -0.5193   -3.2318 H       2  PHENYL2222    0.0622
     50 H          -1.8550    1.6774   -1.4024 H       1  BENZYL1111    0.0326
     51 H          -2.3918    0.1185   -2.0179 H       1  BENZYL1111    0.0326
     52 H          -2.8054   -0.7604    0.1056 H       1  BENZYL1111    0.0815
     53 H          -2.8471    0.8447    0.8247 H       1  BENZYL1111    0.0815
     54 H          -0.5995    1.0743    0.4400 H       3  CYCLOHEXYL3333    0.2033
     55 H          -0.2021   -0.3176   -1.4139 H       3  CYCLOHEXYL3333    0.0815
     56 H          -0.3200   -1.6875   -0.3436 H       3  CYCLOHEXYL3333    0.0815
     57 H           2.0499   -1.0648   -0.6571 H       3  CYCLOHEXYL3333    0.0335
     58 H           1.6867    0.5428   -0.0799 H       3  CYCLOHEXYL3333    0.0335
     59 H           1.4108   -1.9615    1.6479 H       3  CYCLOHEXYL3333    0.0504
     60 H           0.8046   -0.4673    3.3997 H       3  CYCLOHEXYL3333    0.0335
     61 H           0.9462    0.8974    2.3264 H       3  CYCLOHEXYL3333    0.0335
     62 H          -1.0671   -1.3456    2.0286 H       3  CYCLOHEXYL3333    0.0815
     63 H          -1.4007    0.2863    2.5422 H       3  CYCLOHEXYL3333    0.0815
     64 H           3.1476    1.2733    1.8422 H       3  CYCLOHEXYL3333    0.0462
     65 H           4.7077    0.4737    1.8413 H       3  CYCLOHEXYL3333    0.0462
     66 H           2.7964    0.4838    4.1735 H       3  CYCLOHEXYL3333    0.0245
     67 H           4.2838    1.4107    4.0675 H       3  CYCLOHEXYL3333    0.0245
     68 H           4.3422   -0.3232    4.1280 H       3  CYCLOHEXYL3333    0.0245
     69 H           5.7463   -2.9245    1.6430 H       3  CYCLOHEXYL3333    0.0407
     70 H           5.6366   -1.4370    2.5535 H       3  CYCLOHEXYL3333    0.0407
     71 H           7.5622   -0.2660    1.7125 H       4  PHENYL4444    0.0621
     72 H           8.5715    1.0380   -0.0663 H       4  PHENYL4444    0.0637
     73 H           5.8034   -0.5497   -2.8032 H       4  PHENYL4444    0.0637
     74 H           4.8032   -1.8659   -1.0285 H       4  PHENYL4444    0.0621
     75 H           9.7894    0.5902   -4.2472 H       5  SULFONYL5555    0.0468
     76 H           8.7773   -0.7572   -3.7546 H       5  SULFONYL5555    0.0468
     77 H           9.9080   -0.0641   -2.6346 H       5  SULFONYL5555    0.0468
     78 H          -7.7639   -4.8729   -0.0436 H       6  SULFONYL6666    0.0660
     79 H          -6.5376   -3.8976    0.7487 H       6  SULFONYL6666    0.0660
     80 H          -6.3023   -4.4305   -0.8866 H       6  SULFONYL6666    0.0660
@<TRIPOS>BOND
     1     1     2    1
     2     2     3   ar
     3     2     7   ar
     4     7     6   ar
     5     6     5   ar
     6     5     4   ar
     7     4     3   ar
     8     8     9   ar
     9     8    13   ar
    10    13    12   ar
    11    12    11   ar
    12    11    10   ar
    13    10     9   ar
    14     1     8    1
    15     1    14    1
    16    14    15    1
    17    16    17    1
    18    16    21    1
    19    21    20    1
    20    20    19    1
    21    19    18    1
    22    18    17    1
    23    15    16    1
    24    19    22    1
    25    22    23    1
    26    23    24    1
    27    22    25   am
    28    25    26    2
    29    25    27    1
    30    28    29   ar
    31    28    33   ar
    32    33    32   ar
    33    32    31   ar
    34    31    30   ar
    35    30    29   ar
    36    27    28    1
    37    34    35    2
    38    34    36    2
    39    31    34    1
    40    11    37    1
    41    34    38    1
    42    37    39    1
    43     1    40    1
    44     3    41    1
    45     4    42    1
    46     5    43    1
    47     6    44    1
    48     7    45    1
    49     9    46    1
    50    10    47    1
    51    12    48    1
    52    13    49    1
    53    14    50    1
    54    14    51    1
    55    15    52    1
    56    15    53    1
    57    16    54    1
    58    17    55    1
    59    17    56    1
    60    18    57    1
    61    18    58    1
    62    19    59    1
    63    20    60    1
    64    20    61    1
    65    21    62    1
    66    21    63    1
    67    23    64    1
    68    23    65    1
    69    24    66    1
    70    24    67    1
    71    24    68    1
    72    27    69    1
    73    27    70    1
    74    29    71    1
    75    30    72    1
    76    32    73    1
    77    33    74    1
    78    38    75    1
    79    38    76    1
    80    38    77    1
    81    39    78    1
    82    39    79    1
    83    39    80    1
