@<TRIPOS>MOLECULE
CCR5_44
 69 72 0 0 0
SMALL
GASTEIGER

@<TRIPOS>ATOM
      1 C1         -4.0397    1.4871   -1.4958 C.3     1  BENZYL1111    0.0140
      2 C2         -4.4497    2.6862   -0.6132 C.ar    1  BENZYL1111   -0.0398
      3 C3         -5.7908    3.0898   -0.6549 C.ar    1  BENZYL1111   -0.0580
      4 C4         -6.2533    4.1431    0.1387 C.ar    1  BENZYL1111   -0.0615
      5 C5         -5.3695    4.8204    0.9813 C.ar    1  BENZYL1111   -0.0617
      6 C6         -4.0248    4.4445    1.0145 C.ar    1  BENZYL1111   -0.0615
      7 C7         -3.5661    3.3928    0.2153 C.ar    1  BENZYL1111   -0.0580
      8 C          -5.0042    0.3000   -1.3203 C.ar    2  PHENYL2222   -0.0398
      9 C          -5.5893    0.0232   -0.0783 C.ar    2  PHENYL2222   -0.0580
     10 C          -6.4683   -1.0539    0.0672 C.ar    2  PHENYL2222   -0.0615
     11 C          -6.7665   -1.8674   -1.0289 C.ar    2  PHENYL2222   -0.0617
     12 C          -6.1823   -1.6009   -2.2699 C.ar    2  PHENYL2222   -0.0615
     13 C          -5.3044   -0.5226   -2.4126 C.ar    2  PHENYL2222   -0.0580
     14 C14        -2.5817    0.9608   -1.3495 C.3     1  BENZYL1111   -0.0017
     15 C15        -2.3218    0.2305   -0.0008 C.3     1  BENZYL1111   -0.0310
     16 N16        -0.8736    0.1226    0.3233 N.4     3  CYCLOHEXYL3333    0.2353
     17 C2         -0.0638   -0.6511   -0.6522 C.3     3  CYCLOHEXYL3333   -0.0302
     18 C3          1.4453   -0.5000   -0.3337 C.3     3  CYCLOHEXYL3333    0.0064
     19 C4          1.7410   -0.9814    1.1100 C.3     3  CYCLOHEXYL3333    0.0368
     20 C5          0.8703   -0.1713    2.0991 C.3     3  CYCLOHEXYL3333    0.0064
     21 C6         -0.6285   -0.3040    1.7265 C.3     3  CYCLOHEXYL3333   -0.0302
     22 N22         3.1688   -0.8985    1.4631 N.am    3  CYCLOHEXYL3333   -0.2850
     23 C23         3.9774    0.2645    1.0750 C.3     3  CYCLOHEXYL3333    0.0049
     24 C24         9.1819    0.3214    2.2516 C.3     4  PHENYL4444   -0.0397
     25 C25         3.6855   -1.8852    2.2571 C.2     3  CYCLOHEXYL3333    0.3065
     26 O26         2.9009   -2.5787    2.8851 O.2     3  CYCLOHEXYL3333   -0.2523
     27 N27         4.9496   -2.1819    2.4264 N.am    3  CYCLOHEXYL3333   -0.2693
     28 C           5.9631   -1.6746    1.6888 C.ar    4  PHENYL4444    0.0350
     29 C           7.0120   -0.9915    2.3118 C.ar    4  PHENYL4444   -0.0375
     30 C           8.0521   -0.4442    1.5524 C.ar    4  PHENYL4444   -0.0487
     31 C           8.0448   -0.6039    0.1619 C.ar    4  PHENYL4444   -0.0587
     32 C           7.0113   -1.3085   -0.4621 C.ar    4  PHENYL4444   -0.0598
     33 C           5.9759   -1.8526    0.3023 C.ar    4  PHENYL4444   -0.0404
     34 H          -4.0958    1.9065   -2.4786 H       1  BENZYL1111    0.0399
     35 H          -6.4483    2.6009   -1.2824 H       1  BENZYL1111    0.0620
     36 H          -7.2468    4.4200    0.1020 H       1  BENZYL1111    0.0618
     37 H          -5.7076    5.5935    1.5755 H       1  BENZYL1111    0.0618
     38 H          -3.3666    4.9453    1.6318 H       1  BENZYL1111    0.0618
     39 H          -2.5673    3.1340    0.2354 H       1  BENZYL1111    0.0620
     40 H          -5.3699    0.6188    0.7354 H       2  PHENYL2222    0.0620
     41 H          -6.8975   -1.2485    0.9853 H       2  PHENYL2222    0.0618
     42 H          -7.4160   -2.6623   -0.9223 H       2  PHENYL2222    0.0618
     43 H          -6.3991   -2.2004   -3.0814 H       2  PHENYL2222    0.0618
     44 H          -4.8739   -0.3313   -3.3308 H       2  PHENYL2222    0.0620
     45 H          -1.8946    1.7743   -1.4550 H       1  BENZYL1111    0.0326
     46 H          -2.4355    0.2380   -2.1248 H       1  BENZYL1111    0.0326
     47 H          -2.7587   -0.7458   -0.0293 H       1  BENZYL1111    0.0815
     48 H          -2.7754    0.8182    0.7697 H       1  BENZYL1111    0.0815
     49 H          -0.5311    1.0792    0.2334 H       3  CYCLOHEXYL3333    0.2033
     50 H          -0.2656   -0.3144   -1.6476 H       3  CYCLOHEXYL3333    0.0815
     51 H          -0.3296   -1.6848   -0.5769 H       3  CYCLOHEXYL3333    0.0815
     52 H           2.0273   -1.0606   -1.0350 H       3  CYCLOHEXYL3333    0.0335
     53 H           1.7105    0.5337   -0.4117 H       3  CYCLOHEXYL3333    0.0335
     54 H           1.4896   -2.0197    1.1708 H       3  CYCLOHEXYL3333    0.0504
     55 H           1.0328   -0.5148    3.0993 H       3  CYCLOHEXYL3333    0.0335
     56 H           1.1497    0.8598    2.0381 H       3  CYCLOHEXYL3333    0.0335
     57 H          -0.9504   -1.3154    1.8622 H       3  CYCLOHEXYL3333    0.0815
     58 H          -1.1903    0.3378    2.3725 H       3  CYCLOHEXYL3333    0.0815
     59 H           3.3940    0.9152    0.4576 H       3  CYCLOHEXYL3333    0.0429
     60 H           4.8558   -0.0527    0.5527 H       3  CYCLOHEXYL3333    0.0429
     61 H           4.2796    0.7923    1.9553 H       3  CYCLOHEXYL3333    0.0429
     62 H           9.8843    0.6667    1.5220 H       4  PHENYL4444    0.0278
     63 H           9.6694   -0.3085    2.9661 H       4  PHENYL4444    0.0278
     64 H           8.7694    1.1626    2.7684 H       4  PHENYL4444    0.0278
     65 H           5.1783   -2.8192    3.1411 H       3  CYCLOHEXYL3333    0.1564
     66 H           7.0192   -0.8902    3.3388 H       4  PHENYL4444    0.0639
     67 H           8.8061   -0.1995   -0.4054 H       4  PHENYL4444    0.0620
     68 H           7.0130   -1.4268   -1.4873 H       4  PHENYL4444    0.0618
     69 H           5.2208   -2.3858   -0.1566 H       4  PHENYL4444    0.0636
@<TRIPOS>BOND
     1     1     2    1
     2     2     3   ar
     3     2     7   ar
     4     7     6   ar
     5     6     5   ar
     6     5     4   ar
     7     4     3   ar
     8     8     9   ar
     9     8    13   ar
    10    13    12   ar
    11    12    11   ar
    12    11    10   ar
    13    10     9   ar
    14     1     8    1
    15     1    14    1
    16    14    15    1
    17    16    17    1
    18    16    21    1
    19    21    20    1
    20    20    19    1
    21    19    18    1
    22    18    17    1
    23    15    16    1
    24    19    22    1
    25    22    23    1
    26    30    24    1
    27    22    25   am
    28    25    26    2
    29    25    27   am
    30    28    29   ar
    31    33    28   ar
    32    32    33   ar
    33    31    32   ar
    34    31    30   ar
    35    30    29   ar
    36    27    28    1
    37     1    34    1
    38     3    35    1
    39     4    36    1
    40     5    37    1
    41     6    38    1
    42     7    39    1
    43     9    40    1
    44    10    41    1
    45    11    42    1
    46    12    43    1
    47    13    44    1
    48    14    45    1
    49    14    46    1
    50    15    47    1
    51    15    48    1
    52    16    49    1
    53    17    50    1
    54    17    51    1
    55    18    52    1
    56    18    53    1
    57    19    54    1
    58    20    55    1
    59    20    56    1
    60    21    57    1
    61    21    58    1
    62    23    59    1
    63    23    60    1
    64    23    61    1
    65    24    62    1
    66    24    63    1
    67    24    64    1
    68    27    65    1
    69    29    66    1
    70    31    67    1
    71    32    68    1
    72    33    69    1
