@<TRIPOS>MOLECULE
CCR5_04
 67 70 0 0 0
SMALL
GASTEIGER

@<TRIPOS>ATOM
      1 C1         -3.9946    1.4301   -1.5035 C.3     1  BENZYL1111    0.0140
      2 C2         -4.4320    2.6755   -0.7011 C.ar    1  BENZYL1111   -0.0398
      3 C3         -5.7763    3.0622   -0.7849 C.ar    1  BENZYL1111   -0.0580
      4 C4         -6.2635    4.1465   -0.0500 C.ar    1  BENZYL1111   -0.0615
      5 C5         -5.4007    4.8761    0.7704 C.ar    1  BENZYL1111   -0.0617
      6 C6         -4.0510    4.5231    0.8367 C.ar    1  BENZYL1111   -0.0615
      7 C7         -3.5678    3.4401    0.0958 C.ar    1  BENZYL1111   -0.0580
      8 C          -4.9755    0.2593   -1.3078 C.ar    2  PHENYL2222   -0.0398
      9 C          -5.6002    0.0404   -0.0736 C.ar    2  PHENYL2222   -0.0580
     10 C          -6.4940   -1.0216    0.0906 C.ar    2  PHENYL2222   -0.0615
     11 C          -6.7684   -1.8777   -0.9790 C.ar    2  PHENYL2222   -0.0617
     12 C          -6.1448   -1.6692   -2.2119 C.ar    2  PHENYL2222   -0.0615
     13 C          -5.2512   -0.6063   -2.3730 C.ar    2  PHENYL2222   -0.0580
     14 C14        -2.5500    0.9004   -1.2640 C.3     1  BENZYL1111   -0.0017
     15 C15        -2.3496    0.2771    0.1466 C.3     1  BENZYL1111   -0.0310
     16 N16        -0.9090    0.1781    0.5055 N.4     3  CYCLOHEXYL3333    0.2353
     17 C2         -0.1417   -0.8259   -0.2742 C.3     3  CYCLOHEXYL3333   -0.0302
     18 C3          1.3772   -0.7258    0.0197 C.3     3  CYCLOHEXYL3333    0.0063
     19 C4          1.6583   -0.8772    1.5355 C.3     3  CYCLOHEXYL3333    0.0353
     20 C5          0.8387    0.2115    2.2766 C.3     3  CYCLOHEXYL3333    0.0063
     21 C6         -0.6712    0.0569    1.9663 C.3     3  CYCLOHEXYL3333   -0.0302
     22 N22         3.1173   -0.8587    1.7439 N.am    3  CYCLOHEXYL3333   -0.3008
     23 C23         3.8489    0.3623    2.1094 C.3     3  CYCLOHEXYL3333    0.0035
     24 C25         3.8000   -2.0024    1.4445 C.2     3  CYCLOHEXYL3333    0.2199
     25 O26         3.2117   -3.0242    1.1278 O.2     3  CYCLOHEXYL3333   -0.2752
     26 C27         5.3081   -2.1005    1.4635 C.3     3  CYCLOHEXYL3333    0.0493
     27 C           5.9419   -1.0710    0.5179 C.ar    4  PHENYL4444   -0.0386
     28 C           7.0289   -0.2899    0.9276 C.ar    4  PHENYL4444   -0.0581
     29 C           7.5756    0.6651    0.0653 C.ar    4  PHENYL4444   -0.0615
     30 C           7.0448    0.8372   -1.2160 C.ar    4  PHENYL4444   -0.0617
     31 C           5.9701    0.0487   -1.6355 C.ar    4  PHENYL4444   -0.0615
     32 C           5.4254   -0.9063   -0.7724 C.ar    4  PHENYL4444   -0.0581
     33 H          -4.0041    1.7993   -2.5077 H       1  BENZYL1111    0.0399
     34 H          -6.4176    2.5373   -1.3999 H       1  BENZYL1111    0.0620
     35 H          -7.2599    4.4077   -0.1136 H       1  BENZYL1111    0.0618
     36 H          -5.7578    5.6706    1.3239 H       1  BENZYL1111    0.0618
     37 H          -3.4074    5.0640    1.4352 H       1  BENZYL1111    0.0618
     38 H          -2.5647    3.2010    0.1359 H       1  BENZYL1111    0.0620
     39 H          -5.3991    0.6679    0.7206 H       2  PHENYL2222    0.0620
     40 H          -6.9518   -1.1736    1.0029 H       2  PHENYL2222    0.0618
     41 H          -7.4293   -2.6612   -0.8589 H       2  PHENYL2222    0.0618
     42 H          -6.3440   -2.3001   -3.0039 H       2  PHENYL2222    0.0618
     43 H          -4.7909   -0.4585   -3.2848 H       2  PHENYL2222    0.0620
     44 H          -1.8480    1.6950   -1.4081 H       1  BENZYL1111    0.0326
     45 H          -2.3860    0.1172   -1.9744 H       1  BENZYL1111    0.0326
     46 H          -2.8008   -0.6924    0.1831 H       1  BENZYL1111    0.0815
     47 H          -2.8205    0.9219    0.8589 H       1  BENZYL1111    0.0815
     48 H          -0.5286    1.0809    0.2216 H       3  CYCLOHEXYL3333    0.2033
     49 H          -0.3207   -0.6899   -1.3203 H       3  CYCLOHEXYL3333    0.0815
     50 H          -0.4734   -1.7995    0.0208 H       3  CYCLOHEXYL3333    0.0815
     51 H           1.9063   -1.4777   -0.5276 H       3  CYCLOHEXYL3333    0.0335
     52 H           1.7166    0.2405   -0.2902 H       3  CYCLOHEXYL3333    0.0335
     53 H           1.3365   -1.8104    1.9484 H       3  CYCLOHEXYL3333    0.0504
     54 H           1.0060    0.1432    3.3312 H       3  CYCLOHEXYL3333    0.0335
     55 H           1.1607    1.1730    1.9349 H       3  CYCLOHEXYL3333    0.0335
     56 H          -1.0249   -0.8890    2.3198 H       3  CYCLOHEXYL3333    0.0815
     57 H          -1.2072    0.8352    2.4681 H       3  CYCLOHEXYL3333    0.0815
     58 H           3.1525    1.1499    2.3085 H       3  CYCLOHEXYL3333    0.0429
     59 H           4.5135    0.6461    1.3203 H       3  CYCLOHEXYL3333    0.0429
     60 H           4.4288    0.1749    2.9889 H       3  CYCLOHEXYL3333    0.0429
     61 H           5.6135   -3.0878    1.1863 H       3  CYCLOHEXYL3333    0.0407
     62 H           5.6435   -1.8910    2.4578 H       3  CYCLOHEXYL3333    0.0407
     63 H           7.4284   -0.4196    1.8702 H       4  PHENYL4444    0.0620
     64 H           8.3720    1.2436    0.3753 H       4  PHENYL4444    0.0618
     65 H           7.4457    1.5451   -1.8510 H       4  PHENYL4444    0.0618
     66 H           5.5786    0.1715   -2.5824 H       4  PHENYL4444    0.0618
     67 H           4.6377   -1.4934   -1.0884 H       4  PHENYL4444    0.0620
@<TRIPOS>BOND
     1     1     2    1
     2     2     3   ar
     3     2     7   ar
     4     7     6   ar
     5     6     5   ar
     6     5     4   ar
     7     4     3   ar
     8     8     9   ar
     9     8    13   ar
    10    13    12   ar
    11    12    11   ar
    12    11    10   ar
    13    10     9   ar
    14     1     8    1
    15     1    14    1
    16    14    15    1
    17    16    17    1
    18    16    21    1
    19    21    20    1
    20    20    19    1
    21    19    18    1
    22    18    17    1
    23    15    16    1
    24    19    22    1
    25    22    23    1
    26    22    24   am
    27    24    25    2
    28    24    26    1
    29    27    28   ar
    30    27    32   ar
    31    32    31   ar
    32    31    30   ar
    33    30    29   ar
    34    29    28   ar
    35    26    27    1
    36     1    33    1
    37     3    34    1
    38     4    35    1
    39     5    36    1
    40     6    37    1
    41     7    38    1
    42     9    39    1
    43    10    40    1
    44    11    41    1
    45    12    42    1
    46    13    43    1
    47    14    44    1
    48    14    45    1
    49    15    46    1
    50    15    47    1
    51    16    48    1
    52    17    49    1
    53    17    50    1
    54    18    51    1
    55    18    52    1
    56    19    53    1
    57    20    54    1
    58    20    55    1
    59    21    56    1
    60    21    57    1
    61    23    58    1
    62    23    59    1
    63    23    60    1
    64    26    61    1
    65    26    62    1
    66    28    63    1
    67    29    64    1
    68    30    65    1
    69    31    66    1
    70    32    67    1
