@<TRIPOS>MOLECULE
CCR5_74
 83 86 0 0 0
SMALL
GASTEIGER

@<TRIPOS>ATOM
      1 C1         -4.0175    1.4717   -1.5190 C.3     1  BENZYL1111    0.0141
      2 C2         -4.4527    2.7155   -0.7133 C.ar    1  BENZYL1111   -0.0371
      3 C3         -5.8000    3.0946   -0.7802 C.ar    1  BENZYL1111   -0.0578
      4 C4         -6.2812    4.1865   -0.0522 C.ar    1  BENZYL1111   -0.0588
      5 C5         -5.4087    4.9289    0.7465 C.ar    1  BENZYL1111   -0.0264
      6 C6         -4.0588    4.5780    0.8021 C.ar    1  BENZYL1111    0.1237
      7 C7         -3.5827    3.4868    0.0708 C.ar    1  BENZYL1111   -0.0227
      8 C          -4.9743    0.2856   -1.3002 C.ar    2  PHENYL2222   -0.0397
      9 C          -5.5600    0.0512   -0.0504 C.ar    2  PHENYL2222   -0.0562
     10 C          -6.3647   -1.0727    0.1565 C.ar    2  PHENYL2222   -0.0402
     11 C          -6.5801   -1.9906   -0.8775 C.ar    2  PHENYL2222    0.0334
     12 C          -6.0583   -1.7159   -2.1456 C.ar    2  PHENYL2222   -0.0402
     13 C          -5.2617   -0.5868   -2.3559 C.ar    2  PHENYL2222   -0.0562
     14 C14        -2.5661    0.9534   -1.2928 C.3     1  BENZYL1111   -0.0017
     15 C15        -2.3590    0.3177    0.1120 C.3     1  BENZYL1111   -0.0310
     16 N16        -0.9252    0.2034    0.4923 N.4     3  CYCLOHEXYL3333    0.2353
     17 C2         -0.1142   -0.6783   -0.3849 C.3     3  CYCLOHEXYL3333   -0.0302
     18 C3          1.3893   -0.5820   -0.0233 C.3     3  CYCLOHEXYL3333    0.0063
     19 C4          1.6250   -0.9278    1.4663 C.3     3  CYCLOHEXYL3333    0.0356
     20 C5          0.7441    0.0012    2.3420 C.3     3  CYCLOHEXYL3333    0.0063
     21 C6         -0.7451   -0.1234    1.9309 C.3     3  CYCLOHEXYL3333   -0.0302
     22 N22         3.0792   -0.8844    1.7126 N.am    3  CYCLOHEXYL3333   -0.2980
     23 C23         3.7814    0.3645    2.0481 C.3     3  CYCLOHEXYL3333    0.0121
     24 C24         3.9086    0.5675    3.5807 C.3     3  CYCLOHEXYL3333   -0.0493
     25 C25         3.7821   -2.0422    1.5288 C.2     3  CYCLOHEXYL3333    0.2201
     26 O26         3.2200   -3.0846    1.2327 O.2     3  CYCLOHEXYL3333   -0.2752
     27 C27         5.2872   -2.1451    1.6388 C.3     3  CYCLOHEXYL3333    0.0493
     28 C           5.9693   -1.5330    0.4061 C.ar    4  PHENYL4444   -0.0385
     29 C           7.1179   -0.7448    0.5447 C.ar    4  PHENYL4444   -0.0563
     30 C           7.7008   -0.1431   -0.5745 C.ar    4  PHENYL4444   -0.0366
     31 C           7.1425   -0.3271   -1.8421 C.ar    4  PHENYL4444    0.0879
     32 C           6.0217   -1.1480   -1.9900 C.ar    4  PHENYL4444   -0.0366
     33 C           5.4421   -1.7538   -0.8717 C.ar    4  PHENYL4444   -0.0563
     34 S1          7.8860    0.4318   -3.2654 S.O2    5  SULFONYL5555   -0.0059
     35 O           6.8851    0.5806   -4.3035 O.2     5  SULFONYL5555   -0.1696
     36 O           8.6559    1.5855   -2.8436 O.2     5  SULFONYL5555   -0.1696
     37 N37        -7.2868   -3.1302   -0.6753 N.am    2  PHENYL2222   -0.2857
     38 C38        -7.0908   -3.8884    0.3718 C.2     2  PHENYL2222    0.2141
     39 O39        -6.2650   -3.6399    1.2346 O.2     2  PHENYL2222   -0.2758
     40 C40         9.0290   -0.8672   -3.7582 C.3     5  SULFONYL5555    0.0596
     41 C41        -7.9125   -5.1431    0.5231 C.3     2  PHENYL2222    0.0125
     42 F42        -3.2213    5.2875    1.5551 F       1  BENZYL1111   -0.2055
     43 H          -4.0529    1.8412   -2.5225 H       1  BENZYL1111    0.0399
     44 H          -6.4485    2.5582   -1.3775 H       1  BENZYL1111    0.0620
     45 H          -7.2793    4.4436   -0.1048 H       1  BENZYL1111    0.0619
     46 H          -5.7596    5.7316    1.2920 H       1  BENZYL1111    0.0646
     47 H          -2.5799    3.2458    0.1081 H       1  BENZYL1111    0.0649
     48 H          -5.3963    0.7133    0.7241 H       2  PHENYL2222    0.0621
     49 H          -6.8030   -1.2266    1.0781 H       2  PHENYL2222    0.0636
     50 H          -6.2630   -2.3518   -2.9322 H       2  PHENYL2222    0.0636
     51 H          -4.8828   -0.3951   -3.2965 H       2  PHENYL2222    0.0621
     52 H          -1.8721    1.7562   -1.4300 H       1  BENZYL1111    0.0326
     53 H          -2.3943    0.1813   -2.0134 H       1  BENZYL1111    0.0326
     54 H          -2.8168   -0.6490    0.1404 H       1  BENZYL1111    0.0815
     55 H          -2.8198    0.9719    0.8224 H       1  BENZYL1111    0.0815
     56 H          -0.5490    1.1389    0.3380 H       3  CYCLOHEXYL3333    0.2033
     57 H          -0.2622   -0.4112   -1.4104 H       3  CYCLOHEXYL3333    0.0815
     58 H          -0.4331   -1.6886   -0.2351 H       3  CYCLOHEXYL3333    0.0815
     59 H           1.9582   -1.2404   -0.6461 H       3  CYCLOHEXYL3333    0.0335
     60 H           1.7096    0.4256   -0.1881 H       3  CYCLOHEXYL3333    0.0335
     61 H           1.3170   -1.9167    1.7348 H       3  CYCLOHEXYL3333    0.0504
     62 H           0.8623   -0.2474    3.3760 H       3  CYCLOHEXYL3333    0.0335
     63 H           1.0576    1.0130    2.1905 H       3  CYCLOHEXYL3333    0.0335
     64 H          -1.0980   -1.1140    2.1285 H       3  CYCLOHEXYL3333    0.0815
     65 H          -1.3139    0.5746    2.5090 H       3  CYCLOHEXYL3333    0.0815
     66 H           3.2684    1.1969    1.6135 H       3  CYCLOHEXYL3333    0.0462
     67 H           4.7713    0.2965    1.6477 H       3  CYCLOHEXYL3333    0.0462
     68 H           2.9328    0.6396    4.0136 H       3  CYCLOHEXYL3333    0.0245
     69 H           4.4737    1.4513    3.7917 H       3  CYCLOHEXYL3333    0.0245
     70 H           4.4207   -0.2706    4.0052 H       3  CYCLOHEXYL3333    0.0245
     71 H           5.5773   -3.1693    1.7470 H       3  CYCLOHEXYL3333    0.0407
     72 H           5.5997   -1.5972    2.5031 H       3  CYCLOHEXYL3333    0.0407
     73 H           7.5365   -0.6072    1.4779 H       4  PHENYL4444    0.0621
     74 H           8.5460    0.4387   -0.4641 H       4  PHENYL4444    0.0637
     75 H           5.6207   -1.3075   -2.9274 H       4  PHENYL4444    0.0637
     76 H           4.6207   -2.3675   -0.9887 H       4  PHENYL4444    0.0621
     77 H          -7.9672   -3.3943   -1.3361 H       2  PHENYL2222    0.1548
     78 H           9.5697   -0.5563   -4.6276 H       5  SULFONYL5555    0.0468
     79 H           8.4962   -1.7734   -3.9577 H       5  SULFONYL5555    0.0468
     80 H           9.7193   -1.0493   -2.9612 H       5  SULFONYL5555    0.0468
     81 H          -8.5888   -5.2288   -0.3016 H       2  PHENYL2222    0.0323
     82 H          -8.4541   -5.1222    1.4457 H       2  PHENYL2222    0.0323
     83 H          -7.2605   -5.9915    0.5329 H       2  PHENYL2222    0.0323
@<TRIPOS>BOND
     1     1     2    1
     2     2     3   ar
     3     2     7   ar
     4     7     6   ar
     5     6     5   ar
     6     5     4   ar
     7     4     3   ar
     8     8     9   ar
     9     8    13   ar
    10    13    12   ar
    11    12    11   ar
    12    11    10   ar
    13    10     9   ar
    14     1     8    1
    15     1    14    1
    16    14    15    1
    17    16    17    1
    18    16    21    1
    19    21    20    1
    20    20    19    1
    21    19    18    1
    22    18    17    1
    23    15    16    1
    24    19    22    1
    25    22    23    1
    26    23    24    1
    27    22    25   am
    28    25    26    2
    29    25    27    1
    30    28    29   ar
    31    28    33   ar
    32    33    32   ar
    33    32    31   ar
    34    31    30   ar
    35    30    29   ar
    36    27    28    1
    37    34    35    2
    38    34    36    2
    39    31    34    1
    40    11    37    1
    41    37    38   am
    42    38    39    2
    43    34    40    1
    44    38    41    1
    45     6    42    1
    46     1    43    1
    47     3    44    1
    48     4    45    1
    49     5    46    1
    50     7    47    1
    51     9    48    1
    52    10    49    1
    53    12    50    1
    54    13    51    1
    55    14    52    1
    56    14    53    1
    57    15    54    1
    58    15    55    1
    59    16    56    1
    60    17    57    1
    61    17    58    1
    62    18    59    1
    63    18    60    1
    64    19    61    1
    65    20    62    1
    66    20    63    1
    67    21    64    1
    68    21    65    1
    69    23    66    1
    70    23    67    1
    71    24    68    1
    72    24    69    1
    73    24    70    1
    74    27    71    1
    75    27    72    1
    76    29    73    1
    77    30    74    1
    78    32    75    1
    79    33    76    1
    80    37    77    1
    81    40    78    1
    82    40    79    1
    83    40    80    1
    84    41    81    1
    85    41    82    1
    86    41    83    1
