@<TRIPOS>MOLECULE
CCR5_71
 84 87 0 0 0
SMALL
GASTEIGER

@<TRIPOS>ATOM
      1 C1         -3.9928    1.3886   -1.5079 C.3     1  BENZYL1111    0.0140
      2 C2         -4.4033    2.6510   -0.7184 C.ar    1  BENZYL1111   -0.0398
      3 C3         -5.7335    3.0774   -0.8284 C.ar    1  BENZYL1111   -0.0580
      4 C4         -6.1991    4.1843   -0.1136 C.ar    1  BENZYL1111   -0.0615
      5 C5         -5.3279    4.8954    0.7141 C.ar    1  BENZYL1111   -0.0617
      6 C6         -3.9921    4.4991    0.8104 C.ar    1  BENZYL1111   -0.0615
      7 C7         -3.5306    3.3922    0.0913 C.ar    1  BENZYL1111   -0.0580
      8 C          -5.0012    0.2468   -1.2860 C.ar    2  PHENYL2222   -0.0397
      9 C          -5.6248    0.0661   -0.0460 C.ar    2  PHENYL2222   -0.0562
     10 C          -6.5805   -0.9386    0.1270 C.ar    2  PHENYL2222   -0.0391
     11 C          -6.9296   -1.7800   -0.9347 C.ar    2  PHENYL2222    0.0477
     12 C          -6.2634   -1.6387   -2.1575 C.ar    2  PHENYL2222   -0.0391
     13 C          -5.3117   -0.6294   -2.3319 C.ar    2  PHENYL2222   -0.0562
     14 C14        -2.5531    0.8420   -1.2784 C.3     1  BENZYL1111   -0.0017
     15 C15        -2.3525    0.2022    0.1249 C.3     1  BENZYL1111   -0.0310
     16 N16        -0.9221    0.1096    0.5237 N.4     3  CYCLOHEXYL3333    0.2353
     17 C2         -0.0484   -0.6692   -0.3895 C.3     3  CYCLOHEXYL3333   -0.0302
     18 C3          1.4405   -0.4980    0.0055 C.3     3  CYCLOHEXYL3333    0.0063
     19 C4          1.6782   -0.9174    1.4759 C.3     3  CYCLOHEXYL3333    0.0356
     20 C5          0.7211   -0.1083    2.3907 C.3     3  CYCLOHEXYL3333    0.0063
     21 C6         -0.7498   -0.3006    1.9413 C.3     3  CYCLOHEXYL3333   -0.0302
     22 N22         3.1226   -0.7914    1.7526 N.am    3  CYCLOHEXYL3333   -0.2980
     23 C23         3.7302    0.4717    2.2011 C.3     3  CYCLOHEXYL3333    0.0121
     24 C24         3.8128    0.5657    3.7474 C.3     3  CYCLOHEXYL3333   -0.0493
     25 C25         3.9085   -1.8787    1.4909 C.2     3  CYCLOHEXYL3333    0.2201
     26 O26         3.4260   -2.9257    1.0890 O.2     3  CYCLOHEXYL3333   -0.2752
     27 C27         5.4140   -1.8920    1.6405 C.3     3  CYCLOHEXYL3333    0.0493
     28 C           6.0978   -1.1257    0.4983 C.ar    4  PHENYL4444   -0.0385
     29 C           7.1987   -0.2998    0.7550 C.ar    4  PHENYL4444   -0.0563
     30 C           7.7846    0.4378   -0.2778 C.ar    4  PHENYL4444   -0.0366
     31 C           7.2773    0.3538   -1.5769 C.ar    4  PHENYL4444    0.0879
     32 C           6.2047   -0.5006   -1.8448 C.ar    4  PHENYL4444   -0.0366
     33 C           5.6215   -1.2414   -0.8128 C.ar    4  PHENYL4444   -0.0563
     34 S1          8.0277    1.2850   -2.8901 S.O2    5  SULFONYL5555   -0.0059
     35 O           7.0610    1.4736   -3.9539 O.2     5  SULFONYL5555   -0.1696
     36 O           8.7082    2.4362   -2.3300 O.2     5  SULFONYL5555   -0.1696
     37 N37        -7.9473   -2.7589   -0.7605 N.pl3   6  SULFONYL6666   -0.2209
     38 S1         -8.6591   -3.5319   -2.0156 S.O2    7  SULFONYL7777    0.0403
     39 O          -7.8098   -4.6359   -2.4132 O.2     7  SULFONYL7777   -0.1555
     40 C40         9.2673    0.1070   -3.4491 C.3     5  SULFONYL5555    0.0596
     41 O          -9.0592   -2.5450   -2.9985 O.2     7  SULFONYL7777   -0.1555
     42 C42       -10.1590   -4.2112   -1.2819 C.3     7  SULFONYL7777    0.0736
     43 H          -3.9976    1.7359   -2.5200 H       1  BENZYL1111    0.0399
     44 H          -6.3806    2.5652   -1.4480 H       1  BENZYL1111    0.0620
     45 H          -7.1855    4.4758   -0.1974 H       1  BENZYL1111    0.0618
     46 H          -5.6687    5.7082    1.2510 H       1  BENZYL1111    0.0618
     47 H          -3.3425    5.0257    1.4152 H       1  BENZYL1111    0.0618
     48 H          -2.5379    3.1180    0.1571 H       1  BENZYL1111    0.0620
     49 H          -5.3770    0.6793    0.7462 H       2  PHENYL2222    0.0621
     50 H          -7.0329   -1.0610    1.0464 H       2  PHENYL2222    0.0636
     51 H          -6.4759   -2.2833   -2.9349 H       2  PHENYL2222    0.0636
     52 H          -4.8335   -0.5296   -3.2410 H       2  PHENYL2222    0.0621
     53 H          -1.8437    1.6309   -1.4175 H       1  BENZYL1111    0.0326
     54 H          -2.4005    0.0638   -1.9968 H       1  BENZYL1111    0.0326
     55 H          -2.7944   -0.7721    0.1423 H       1  BENZYL1111    0.0815
     56 H          -2.8328    0.8451    0.8326 H       1  BENZYL1111    0.0815
     57 H          -0.5883    1.0690    0.4316 H       3  CYCLOHEXYL3333    0.2033
     58 H          -0.1989   -0.3527   -1.4005 H       3  CYCLOHEXYL3333    0.0815
     59 H          -0.3058   -1.7044   -0.3063 H       3  CYCLOHEXYL3333    0.0815
     60 H           2.0604   -1.0789   -0.6451 H       3  CYCLOHEXYL3333    0.0335
     61 H           1.6954    0.5366   -0.0923 H       3  CYCLOHEXYL3333    0.0335
     62 H           1.4358   -1.9399    1.6776 H       3  CYCLOHEXYL3333    0.0504
     63 H           0.8376   -0.4168    3.4086 H       3  CYCLOHEXYL3333    0.0335
     64 H           0.9692    0.9295    2.3109 H       3  CYCLOHEXYL3333    0.0335
     65 H          -1.0408   -1.3228    2.0655 H       3  CYCLOHEXYL3333    0.0815
     66 H          -1.3745    0.3175    2.5516 H       3  CYCLOHEXYL3333    0.0815
     67 H           3.1706    1.2990    1.8174 H       3  CYCLOHEXYL3333    0.0462
     68 H           4.7308    0.4994    1.8231 H       3  CYCLOHEXYL3333    0.0462
     69 H           2.8259    0.5406    4.1600 H       3  CYCLOHEXYL3333    0.0245
     70 H           4.3129    1.4660    4.0376 H       3  CYCLOHEXYL3333    0.0245
     71 H           4.3715   -0.2669    4.1211 H       3  CYCLOHEXYL3333    0.0245
     72 H           5.7689   -2.9011    1.6662 H       3  CYCLOHEXYL3333    0.0407
     73 H           5.6592   -1.4028    2.5600 H       3  CYCLOHEXYL3333    0.0407
     74 H           7.5797   -0.2352    1.7119 H       4  PHENYL4444    0.0621
     75 H           8.5944    1.0463   -0.0801 H       4  PHENYL4444    0.0637
     76 H           5.8420   -0.5850   -2.8073 H       4  PHENYL4444    0.0637
     77 H           4.8352   -1.8773   -1.0187 H       4  PHENYL4444    0.0621
     78 H          -8.2358   -2.9809    0.1542 H       6  SULFONYL6666    0.1733
     79 H           9.8210    0.5296   -4.2613 H       5  SULFONYL5555    0.0468
     80 H           8.7998   -0.8057   -3.7547 H       5  SULFONYL5555    0.0468
     81 H           9.9361   -0.1093   -2.6423 H       5  SULFONYL5555    0.0468
     82 H         -10.7104   -4.7461   -2.0267 H       7  SULFONYL7777    0.0482
     83 H         -10.7582   -3.4263   -0.8699 H       7  SULFONYL7777    0.0482
     84 H          -9.8917   -4.8823   -0.4926 H       7  SULFONYL7777    0.0482
@<TRIPOS>BOND
     1     1     2    1
     2     2     3   ar
     3     2     7   ar
     4     7     6   ar
     5     6     5   ar
     6     5     4   ar
     7     4     3   ar
     8     8     9   ar
     9     8    13   ar
    10    13    12   ar
    11    12    11   ar
    12    11    10   ar
    13    10     9   ar
    14     1     8    1
    15     1    14    1
    16    14    15    1
    17    16    17    1
    18    16    21    1
    19    21    20    1
    20    20    19    1
    21    19    18    1
    22    18    17    1
    23    15    16    1
    24    19    22    1
    25    22    23    1
    26    23    24    1
    27    22    25   am
    28    25    26    2
    29    25    27    1
    30    28    29   ar
    31    28    33   ar
    32    33    32   ar
    33    32    31   ar
    34    31    30   ar
    35    30    29   ar
    36    27    28    1
    37    34    35    2
    38    34    36    2
    39    31    34    1
    40    38    39    2
    41    38    41    2
    42    11    37    1
    43    34    40    1
    44    37    38    1
    45    38    42    1
    46     1    43    1
    47     3    44    1
    48     4    45    1
    49     5    46    1
    50     6    47    1
    51     7    48    1
    52     9    49    1
    53    10    50    1
    54    12    51    1
    55    13    52    1
    56    14    53    1
    57    14    54    1
    58    15    55    1
    59    15    56    1
    60    16    57    1
    61    17    58    1
    62    17    59    1
    63    18    60    1
    64    18    61    1
    65    19    62    1
    66    20    63    1
    67    20    64    1
    68    21    65    1
    69    21    66    1
    70    23    67    1
    71    23    68    1
    72    24    69    1
    73    24    70    1
    74    24    71    1
    75    27    72    1
    76    27    73    1
    77    29    74    1
    78    30    75    1
    79    32    76    1
    80    33    77    1
    81    37    78    1
    82    40    79    1
    83    40    80    1
    84    40    81    1
    85    42    82    1
    86    42    83    1
    87    42    84    1
