@<TRIPOS>MOLECULE
CCR5_56
 78 81 0 0 0
SMALL
GASTEIGER

@<TRIPOS>ATOM
      1 C1         -4.0168    1.4020   -1.5104 C.3     1  BENZYL1111    0.0140
      2 C2         -4.3895    2.6497   -0.6795 C.ar    1  BENZYL1111   -0.0398
      3 C3         -5.7033    3.1252   -0.7846 C.ar    1  BENZYL1111   -0.0580
      4 C4         -6.1342    4.2281   -0.0422 C.ar    1  BENZYL1111   -0.0615
      5 C5         -5.2452    4.8825    0.8130 C.ar    1  BENZYL1111   -0.0617
      6 C6         -3.9264    4.4330    0.9106 C.ar    1  BENZYL1111   -0.0615
      7 C7         -3.4991    3.3315    0.1627 C.ar    1  BENZYL1111   -0.0580
      8 C          -5.0333    0.2642   -1.3028 C.ar    2  PHENYL2222   -0.0398
      9 C          -5.6656    0.0749   -0.0674 C.ar    2  PHENYL2222   -0.0580
     10 C          -6.5928   -0.9569    0.1046 C.ar    2  PHENYL2222   -0.0615
     11 C          -6.8938   -1.8124   -0.9583 C.ar    2  PHENYL2222   -0.0617
     12 C          -6.2626   -1.6339   -2.1920 C.ar    2  PHENYL2222   -0.0615
     13 C          -5.3356   -0.6014   -2.3609 C.ar    2  PHENYL2222   -0.0580
     14 C14        -2.5819    0.8284   -1.3200 C.3     1  BENZYL1111   -0.0017
     15 C15        -2.3791    0.1296    0.0547 C.3     1  BENZYL1111   -0.0310
     16 N16        -0.9468    0.0525    0.4479 N.4     3  CYCLOHEXYL3333    0.2353
     17 C2         -0.0739   -0.7361   -0.4587 C.3     3  CYCLOHEXYL3333   -0.0302
     18 C3          1.4186   -0.5275   -0.0919 C.3     3  CYCLOHEXYL3333    0.0064
     19 C4          1.6786   -0.8956    1.3889 C.3     3  CYCLOHEXYL3333    0.0370
     20 C5          0.7163   -0.0824    2.2945 C.3     3  CYCLOHEXYL3333    0.0064
     21 C6         -0.7555   -0.3214    1.8731 C.3     3  CYCLOHEXYL3333   -0.0302
     22 N22         3.1118   -0.7249    1.7110 N.am    3  CYCLOHEXYL3333   -0.2825
     23 C23         3.6926    0.6069    1.9397 C.3     3  CYCLOHEXYL3333    0.0136
     24 C24         3.8527    0.9080    3.4539 C.3     3  CYCLOHEXYL3333   -0.0492
     25 C25         3.9048   -1.8412    1.7507 C.2     3  CYCLOHEXYL3333    0.3027
     26 O26         3.4234   -2.9244    1.4637 O.2     3  CYCLOHEXYL3333   -0.2526
     27 N27         5.2189   -1.8164    2.0953 N.am    3  CYCLOHEXYL3333   -0.2951
     28 C           7.0600   -2.9524    0.9994 C.ar    4  PHENYL4444   -0.0302
     29 C           8.3475   -2.4653    1.2523 C.ar    4  PHENYL4444   -0.0553
     30 C           9.2963   -2.4163    0.2270 C.ar    4  PHENYL4444   -0.0366
     31 C           8.9629   -2.8447   -1.0605 C.ar    4  PHENYL4444    0.0879
     32 C           7.6733   -3.3170   -1.3196 C.ar    4  PHENYL4444   -0.0366
     33 C           6.7221   -3.3596   -0.2959 C.ar    4  PHENYL4444   -0.0553
     34 S1         10.1937   -2.8383   -2.3415 S.O2    5  SULFONYL5555   -0.0059
     35 O           9.5416   -2.8949   -3.6350 O.2     5  SULFONYL5555   -0.1696
     36 O          11.1562   -1.7883   -2.0709 O.2     5  SULFONYL5555   -0.1696
     37 C37         6.0215   -3.0417    2.1249 C.3     3  CYCLOHEXYL3333    0.0383
     38 C40        10.9816   -4.4260   -2.0306 C.3     5  SULFONYL5555    0.0596
     39 H          -4.0422    1.7792   -2.5114 H       1  BENZYL1111    0.0399
     40 H          -6.3642    2.6529   -1.4212 H       1  BENZYL1111    0.0620
     41 H          -7.1083    4.5585   -0.1259 H       1  BENZYL1111    0.0618
     42 H          -5.5605    5.6927    1.3691 H       1  BENZYL1111    0.0618
     43 H          -3.2642    4.9161    1.5376 H       1  BENZYL1111    0.0618
     44 H          -2.5186    3.0170    0.2311 H       1  BENZYL1111    0.0620
     45 H          -5.4452    0.7021    0.7220 H       2  PHENYL2222    0.0620
     46 H          -7.0556   -1.0870    1.0178 H       2  PHENYL2222    0.0618
     47 H          -7.5797   -2.5732   -0.8326 H       2  PHENYL2222    0.0618
     48 H          -6.4809   -2.2647   -2.9790 H       2  PHENYL2222    0.0618
     49 H          -4.8700   -0.4761   -3.2734 H       2  PHENYL2222    0.0620
     50 H          -1.8635    1.6132   -1.4333 H       1  BENZYL1111    0.0326
     51 H          -2.4445    0.0798   -2.0721 H       1  BENZYL1111    0.0326
     52 H          -2.7991   -0.8541    0.0253 H       1  BENZYL1111    0.0815
     53 H          -2.8798    0.7233    0.7907 H       1  BENZYL1111    0.0815
     54 H          -0.6227    1.0132    0.3369 H       3  CYCLOHEXYL3333    0.2033
     55 H          -0.2459   -0.4498   -1.4752 H       3  CYCLOHEXYL3333    0.0815
     56 H          -0.3115   -1.7731   -0.3441 H       3  CYCLOHEXYL3333    0.0815
     57 H           2.0391   -1.1202   -0.7310 H       3  CYCLOHEXYL3333    0.0335
     58 H           1.6579    0.5064   -0.2290 H       3  CYCLOHEXYL3333    0.0335
     59 H           1.4656   -1.9282    1.5716 H       3  CYCLOHEXYL3333    0.0505
     60 H           0.8547   -0.3584    3.3190 H       3  CYCLOHEXYL3333    0.0335
     61 H           0.9389    0.9580    2.1813 H       3  CYCLOHEXYL3333    0.0335
     62 H          -1.0199   -1.3472    2.0236 H       3  CYCLOHEXYL3333    0.0815
     63 H          -1.3911    0.2907    2.4783 H       3  CYCLOHEXYL3333    0.0815
     64 H           3.0790    1.3549    1.4828 H       3  CYCLOHEXYL3333    0.0462
     65 H           4.6667    0.6209    1.4972 H       3  CYCLOHEXYL3333    0.0462
     66 H           2.8911    0.9003    3.9232 H       3  CYCLOHEXYL3333    0.0245
     67 H           4.3261    1.8572    3.5948 H       3  CYCLOHEXYL3333    0.0245
     68 H           4.4675    0.1540    3.8994 H       3  CYCLOHEXYL3333    0.0245
     69 H           5.6401   -0.9580    2.3298 H       3  CYCLOHEXYL3333    0.1506
     70 H           8.5974   -2.1410    2.1996 H       4  PHENYL4444    0.0621
     71 H          10.2461   -2.0626    0.4216 H       4  PHENYL4444    0.0637
     72 H           7.4226   -3.6351   -2.2688 H       4  PHENYL4444    0.0637
     73 H           5.7662   -3.6929   -0.4965 H       4  PHENYL4444    0.0621
     74 H           5.3986   -3.9018    1.9937 H       3  CYCLOHEXYL3333    0.0512
     75 H           6.5106   -3.1397    3.0715 H       3  CYCLOHEXYL3333    0.0512
     76 H          11.7691   -4.5787   -2.7388 H       5  SULFONYL5555    0.0468
     77 H          10.2631   -5.2159   -2.0995 H       5  SULFONYL5555    0.0468
     78 H          11.3920   -4.4275   -1.0424 H       5  SULFONYL5555    0.0468
@<TRIPOS>BOND
     1     1     2    1
     2     2     3   ar
     3     2     7   ar
     4     7     6   ar
     5     6     5   ar
     6     5     4   ar
     7     4     3   ar
     8     8     9   ar
     9     8    13   ar
    10    13    12   ar
    11    12    11   ar
    12    11    10   ar
    13    10     9   ar
    14     1     8    1
    15     1    14    1
    16    14    15    1
    17    16    17    1
    18    16    21    1
    19    21    20    1
    20    20    19    1
    21    19    18    1
    22    18    17    1
    23    16    15    1
    24    19    22    1
    25    22    23    1
    26    23    24    1
    27    22    25   am
    28    25    26    2
    29    25    27   am
    30    28    29   ar
    31    28    33   ar
    32    33    32   ar
    33    32    31   ar
    34    31    30   ar
    35    30    29   ar
    36    27    37    1
    37    34    35    2
    38    34    36    2
    39    31    34    1
    40    28    37    1
    41    34    38    1
    42     1    39    1
    43     3    40    1
    44     4    41    1
    45     5    42    1
    46     6    43    1
    47     7    44    1
    48     9    45    1
    49    10    46    1
    50    11    47    1
    51    12    48    1
    52    13    49    1
    53    14    50    1
    54    14    51    1
    55    15    52    1
    56    15    53    1
    57    16    54    1
    58    17    55    1
    59    17    56    1
    60    18    57    1
    61    18    58    1
    62    19    59    1
    63    20    60    1
    64    20    61    1
    65    21    62    1
    66    21    63    1
    67    23    64    1
    68    23    65    1
    69    24    66    1
    70    24    67    1
    71    24    68    1
    72    27    69    1
    73    29    70    1
    74    30    71    1
    75    32    72    1
    76    33    73    1
    77    37    74    1
    78    37    75    1
    79    38    76    1
    80    38    77    1
    81    38    78    1
