@<TRIPOS>MOLECULE
CCR5_73
 78 81 0 0 0
SMALL
GASTEIGER

@<TRIPOS>ATOM
      1 C1         -4.0018    1.3958   -1.5082 C.3     1  BENZYL1111    0.0141
      2 C2         -4.4038    2.6602   -0.7174 C.ar    1  BENZYL1111   -0.0371
      3 C3         -5.7350    3.0879   -0.8109 C.ar    1  BENZYL1111   -0.0578
      4 C4         -6.1888    4.2022   -0.0994 C.ar    1  BENZYL1111   -0.0588
      5 C5         -5.3033    4.9198    0.7076 C.ar    1  BENZYL1111   -0.0264
      6 C6         -3.9685    4.5199    0.7902 C.ar    1  BENZYL1111    0.1237
      7 C7         -3.5205    3.4042    0.0782 C.ar    1  BENZYL1111   -0.0227
      8 C          -5.0062    0.2503   -1.2866 C.ar    2  PHENYL2222   -0.0397
      9 C          -5.6311    0.0659   -0.0477 C.ar    2  PHENYL2222   -0.0563
     10 C          -6.5561   -0.9661    0.1349 C.ar    2  PHENYL2222   -0.0408
     11 C          -6.8706   -1.8351   -0.9161 C.ar    2  PHENYL2222    0.0246
     12 C          -6.2346   -1.6597   -2.1505 C.ar    2  PHENYL2222   -0.0408
     13 C          -5.3084   -0.6285   -2.3327 C.ar    2  PHENYL2222   -0.0563
     14 C14        -2.5627    0.8466   -1.2816 C.3     1  BENZYL1111   -0.0017
     15 C15        -2.3642    0.2083    0.1228 C.3     1  BENZYL1111   -0.0310
     16 N16        -0.9350    0.1106    0.5240 N.4     3  CYCLOHEXYL3333    0.2353
     17 C2         -0.0577   -0.6572   -0.3949 C.3     3  CYCLOHEXYL3333   -0.0302
     18 C3          1.4293   -0.4871    0.0072 C.3     3  CYCLOHEXYL3333    0.0063
     19 C4          1.6636   -0.9225    1.4735 C.3     3  CYCLOHEXYL3333    0.0356
     20 C5          0.7007   -0.1276    2.3948 C.3     3  CYCLOHEXYL3333    0.0063
     21 C6         -0.7679   -0.3177    1.9370 C.3     3  CYCLOHEXYL3333   -0.0302
     22 N22         3.1068   -0.7937    1.7548 N.am    3  CYCLOHEXYL3333   -0.2980
     23 C23         3.7078    0.4662    2.2209 C.3     3  CYCLOHEXYL3333    0.0121
     24 C24         3.7876    0.5390    3.7684 C.3     3  CYCLOHEXYL3333   -0.0493
     25 C25         3.8981   -1.8739    1.4801 C.2     3  CYCLOHEXYL3333    0.2201
     26 O26         3.4208   -2.9185    1.0664 O.2     3  CYCLOHEXYL3333   -0.2752
     27 C27         5.4038   -1.8805    1.6278 C.3     3  CYCLOHEXYL3333    0.0493
     28 C           6.0801   -1.0948    0.4942 C.ar    4  PHENYL4444   -0.0385
     29 C           7.1775   -0.2669    0.7590 C.ar    4  PHENYL4444   -0.0563
     30 C           7.7548    0.4899   -0.2647 C.ar    4  PHENYL4444   -0.0366
     31 C           7.2422    0.4231   -1.5628 C.ar    4  PHENYL4444    0.0879
     32 C           6.1741   -0.4341   -1.8396 C.ar    4  PHENYL4444   -0.0366
     33 C           5.5999   -1.1943   -0.8168 C.ar    4  PHENYL4444   -0.0563
     34 S1          7.9808    1.3800   -2.8642 S.O2    5  SULFONYL5555   -0.0059
     35 O           7.0113    1.5715   -3.9249 O.2     5  SULFONYL5555   -0.1696
     36 O           8.6484    2.5314   -2.2892 O.2     5  SULFONYL5555   -0.1696
     37 F37        -3.1185    5.2059    1.5508 F       1  BENZYL1111   -0.2055
     38 ****       -7.7761   -2.8296   -0.7416 N.pl3   6  AMINO6666   -0.3580
     39 C40         9.2334    0.2237   -3.4394 C.3     5  SULFONYL5555    0.0596
     40 H          -4.0165    1.7466   -2.5189 H       1  BENZYL1111    0.0399
     41 H          -6.3921    2.5709   -1.4159 H       1  BENZYL1111    0.0620
     42 H          -7.1761    4.4940   -0.1703 H       1  BENZYL1111    0.0619
     43 H          -5.6336    5.7403    1.2393 H       1  BENZYL1111    0.0646
     44 H          -2.5289    3.1247    0.1385 H       1  BENZYL1111    0.0649
     45 H          -5.4070    0.6971    0.7374 H       2  PHENYL2222    0.0621
     46 H          -7.0112   -1.0883    1.0530 H       2  PHENYL2222    0.0636
     47 H          -6.4512   -2.2970   -2.9328 H       2  PHENYL2222    0.0636
     48 H          -4.8434   -0.5144   -3.2469 H       2  PHENYL2222    0.0621
     49 H          -1.8518    1.6339   -1.4218 H       1  BENZYL1111    0.0326
     50 H          -2.4109    0.0685   -2.0002 H       1  BENZYL1111    0.0326
     51 H          -2.8098   -0.7643    0.1416 H       1  BENZYL1111    0.0815
     52 H          -2.8418    0.8552    0.8287 H       1  BENZYL1111    0.0815
     53 H          -0.6010    1.0710    0.4432 H       3  CYCLOHEXYL3333    0.2033
     54 H          -0.2055   -0.3301   -1.4029 H       3  CYCLOHEXYL3333    0.0815
     55 H          -0.3137   -1.6937   -0.3242 H       3  CYCLOHEXYL3333    0.0815
     56 H           2.0527   -1.0590   -0.6479 H       3  CYCLOHEXYL3333    0.0335
     57 H           1.6817    0.5492   -0.0778 H       3  CYCLOHEXYL3333    0.0335
     58 H           1.4240   -1.9479    1.6635 H       3  CYCLOHEXYL3333    0.0504
     59 H           0.8139   -0.4489    3.4091 H       3  CYCLOHEXYL3333    0.0335
     60 H           0.9465    0.9117    2.3293 H       3  CYCLOHEXYL3333    0.0335
     61 H          -1.0568   -1.3421    2.0466 H       3  CYCLOHEXYL3333    0.0815
     62 H          -1.3969    0.2907    2.5528 H       3  CYCLOHEXYL3333    0.0815
     63 H           3.1447    1.2960    1.8478 H       3  CYCLOHEXYL3333    0.0462
     64 H           4.7087    0.5044    1.8445 H       3  CYCLOHEXYL3333    0.0462
     65 H           2.8002    0.5031    4.1790 H       3  CYCLOHEXYL3333    0.0245
     66 H           4.2826    1.4378    4.0719 H       3  CYCLOHEXYL3333    0.0245
     67 H           4.3500   -0.2958    4.1313 H       3  CYCLOHEXYL3333    0.0245
     68 H           5.7648   -2.8877    1.6393 H       3  CYCLOHEXYL3333    0.0407
     69 H           5.6481   -1.4029    2.5536 H       3  CYCLOHEXYL3333    0.0407
     70 H           7.5624   -0.2150    1.7152 H       4  PHENYL4444    0.0621
     71 H           8.5620    1.0998   -0.0611 H       4  PHENYL4444    0.0637
     72 H           5.8081   -0.5062   -2.8018 H       4  PHENYL4444    0.0637
     73 H           4.8174   -1.8326   -1.0295 H       4  PHENYL4444    0.0621
     74 H          -7.9909   -3.4361   -1.4868 H       6  AMINO6666    0.1423
     75 H          -8.2186   -2.9451    0.1303 H       6  AMINO6666    0.1423
     76 H           9.7816    0.6632   -4.2464 H       5  SULFONYL5555    0.0468
     77 H           8.7762   -0.6902   -3.7566 H       5  SULFONYL5555    0.0468
     78 H           9.9052    0.0046   -2.6360 H       5  SULFONYL5555    0.0468
@<TRIPOS>BOND
     1     1     2    1
     2     2     3   ar
     3     2     7   ar
     4     7     6   ar
     5     6     5   ar
     6     5     4   ar
     7     4     3   ar
     8     8     9   ar
     9     8    13   ar
    10    13    12   ar
    11    12    11   ar
    12    11    10   ar
    13    10     9   ar
    14     1     8    1
    15     1    14    1
    16    14    15    1
    17    16    17    1
    18    16    21    1
    19    21    20    1
    20    20    19    1
    21    19    18    1
    22    18    17    1
    23    15    16    1
    24    19    22    1
    25    22    23    1
    26    23    24    1
    27    22    25   am
    28    25    26    2
    29    25    27    1
    30    28    29   ar
    31    28    33   ar
    32    33    32   ar
    33    32    31   ar
    34    31    30   ar
    35    30    29   ar
    36    27    28    1
    37    34    35    2
    38    34    36    2
    39    31    34    1
    40     6    37    1
    41    34    39    1
    42    11    38    1
    43     1    40    1
    44     3    41    1
    45     4    42    1
    46     5    43    1
    47     7    44    1
    48     9    45    1
    49    10    46    1
    50    12    47    1
    51    13    48    1
    52    14    49    1
    53    14    50    1
    54    15    51    1
    55    15    52    1
    56    16    53    1
    57    17    54    1
    58    17    55    1
    59    18    56    1
    60    18    57    1
    61    19    58    1
    62    20    59    1
    63    20    60    1
    64    21    61    1
    65    21    62    1
    66    23    63    1
    67    23    64    1
    68    24    65    1
    69    24    66    1
    70    24    67    1
    71    27    68    1
    72    27    69    1
    73    29    70    1
    74    30    71    1
    75    32    72    1
    76    33    73    1
    77    38    74    1
    78    38    75    1
    79    39    76    1
    80    39    77    1
    81    39    78    1
