@<TRIPOS>MOLECULE
CCR5_12
 67 70 0 0 0
SMALL
GASTEIGER

@<TRIPOS>ATOM
      1 C1         -3.9951    1.4281   -1.5041 C.3     1  BENZYL1111    0.0140
      2 C2         -4.4310    2.6752   -0.7035 C.ar    1  BENZYL1111   -0.0398
      3 C3         -5.7743    3.0644   -0.7898 C.ar    1  BENZYL1111   -0.0580
      4 C4         -6.2603    4.1509   -0.0572 C.ar    1  BENZYL1111   -0.0615
      5 C5         -5.3971    4.8798    0.7636 C.ar    1  BENZYL1111   -0.0617
      6 C6         -4.0484    4.5238    0.8327 C.ar    1  BENZYL1111   -0.0615
      7 C7         -3.5664    3.4386    0.0941 C.ar    1  BENZYL1111   -0.0580
      8 C          -4.9765    0.2583   -1.3055 C.ar    2  PHENYL2222   -0.0398
      9 C          -5.6020    0.0431   -0.0710 C.ar    2  PHENYL2222   -0.0580
     10 C          -6.4962   -1.0182    0.0957 C.ar    2  PHENYL2222   -0.0615
     11 C          -6.7703   -1.8772   -0.9716 C.ar    2  PHENYL2222   -0.0617
     12 C          -6.1460   -1.6723   -2.2047 C.ar    2  PHENYL2222   -0.0615
     13 C          -5.2521   -0.6102   -2.3685 C.ar    2  PHENYL2222   -0.0580
     14 C14        -2.5506    0.8980   -1.2651 C.3     1  BENZYL1111   -0.0017
     15 C15        -2.3499    0.2746    0.1454 C.3     1  BENZYL1111   -0.0310
     16 N16        -0.9100    0.1773    0.5069 N.4     3  CYCLOHEXYL3333    0.2353
     17 C2         -0.1361   -0.8149   -0.2813 C.3     3  CYCLOHEXYL3333   -0.0302
     18 C3          1.3813   -0.7128    0.0196 C.3     3  CYCLOHEXYL3333    0.0063
     19 C4          1.6573   -0.8808    1.5347 C.3     3  CYCLOHEXYL3333    0.0353
     20 C5          0.8309    0.1963    2.2851 C.3     3  CYCLOHEXYL3333    0.0063
     21 C6         -0.6772    0.0400    1.9672 C.3     3  CYCLOHEXYL3333   -0.0302
     22 N22         3.1154   -0.8592    1.7490 N.am    3  CYCLOHEXYL3333   -0.3008
     23 C23         3.8404    0.3593    2.1350 C.3     3  CYCLOHEXYL3333    0.0035
     24 F24         7.5451    1.8023   -2.0059 F       4  PHENYL4444   -0.2055
     25 C25         3.8039   -1.9961    1.4366 C.2     3  CYCLOHEXYL3333    0.2199
     26 O26         3.2210   -3.0155    1.1030 O.2     3  CYCLOHEXYL3333   -0.2752
     27 C27         5.3123   -2.0885    1.4597 C.3     3  CYCLOHEXYL3333    0.0493
     28 C           5.9415   -1.0477    0.5231 C.ar    4  PHENYL4444   -0.0384
     29 C           7.0171   -0.2564    0.9436 C.ar    4  PHENYL4444   -0.0554
     30 C           7.5580    0.7083    0.0883 C.ar    4  PHENYL4444   -0.0262
     31 C           7.0334    0.8800   -1.1948 C.ar    4  PHENYL4444    0.1234
     32 C           5.9715    0.0816   -1.6252 C.ar    4  PHENYL4444   -0.0262
     33 C           5.4313   -0.8833   -0.7701 C.ar    4  PHENYL4444   -0.0554
     34 H          -4.0053    1.7956   -2.5090 H       1  BENZYL1111    0.0399
     35 H          -6.4158    2.5398   -1.4049 H       1  BENZYL1111    0.0620
     36 H          -7.2560    4.4142   -0.1228 H       1  BENZYL1111    0.0618
     37 H          -5.7533    5.6759    1.3152 H       1  BENZYL1111    0.0618
     38 H          -3.4046    5.0641    1.4316 H       1  BENZYL1111    0.0618
     39 H          -2.5640    3.1970    0.1364 H       1  BENZYL1111    0.0620
     40 H          -5.4012    0.6729    0.7215 H       2  PHENYL2222    0.0620
     41 H          -6.9545   -1.1675    1.0082 H       2  PHENYL2222    0.0618
     42 H          -7.4315   -2.6602   -0.8496 H       2  PHENYL2222    0.0618
     43 H          -6.3450   -2.3055   -2.9950 H       2  PHENYL2222    0.0618
     44 H          -4.7915   -0.4650   -3.2805 H       2  PHENYL2222    0.0620
     45 H          -1.8485    1.6924   -1.4094 H       1  BENZYL1111    0.0326
     46 H          -2.3871    0.1148   -1.9755 H       1  BENZYL1111    0.0326
     47 H          -2.7998   -0.6955    0.1812 H       1  BENZYL1111    0.0815
     48 H          -2.8220    0.9193    0.8571 H       1  BENZYL1111    0.0815
     49 H          -0.5319    1.0843    0.2336 H       3  CYCLOHEXYL3333    0.2033
     50 H          -0.3116   -0.6675   -1.3265 H       3  CYCLOHEXYL3333    0.0815
     51 H          -0.4654   -1.7930    0.0013 H       3  CYCLOHEXYL3333    0.0815
     52 H           1.9152   -1.4564   -0.5344 H       3  CYCLOHEXYL3333    0.0335
     53 H           1.7183    0.2582   -0.2777 H       3  CYCLOHEXYL3333    0.0335
     54 H           1.3375   -1.8200    1.9355 H       3  CYCLOHEXYL3333    0.0504
     55 H           0.9944    0.1164    3.3395 H       3  CYCLOHEXYL3333    0.0335
     56 H           1.1508    1.1628    1.9557 H       3  CYCLOHEXYL3333    0.0335
     57 H          -1.0289   -0.9112    2.3084 H       3  CYCLOHEXYL3333    0.0815
     58 H          -1.2179    0.8106    2.4759 H       3  CYCLOHEXYL3333    0.0815
     59 H           3.1400    1.1413    2.3419 H       3  CYCLOHEXYL3333    0.0429
     60 H           4.5075    0.6568    1.3531 H       3  CYCLOHEXYL3333    0.0429
     61 H           4.4170    0.1618    3.0144 H       3  CYCLOHEXYL3333    0.0429
     62 H           5.6230   -3.0720    1.1750 H       3  CYCLOHEXYL3333    0.0407
     63 H           5.6453   -1.8872    2.4565 H       3  CYCLOHEXYL3333    0.0407
     64 H           7.4121   -0.3856    1.8882 H       4  PHENYL4444    0.0621
     65 H           8.3460    1.2944    0.4054 H       4  PHENYL4444    0.0646
     66 H           5.5856    0.2040   -2.5745 H       4  PHENYL4444    0.0646
     67 H           4.6522   -1.4776   -1.0939 H       4  PHENYL4444    0.0621
@<TRIPOS>BOND
     1     1     2    1
     2     2     3   ar
     3     2     7   ar
     4     7     6   ar
     5     6     5   ar
     6     5     4   ar
     7     4     3   ar
     8     8     9   ar
     9     8    13   ar
    10    13    12   ar
    11    12    11   ar
    12    11    10   ar
    13    10     9   ar
    14     1     8    1
    15     1    14    1
    16    14    15    1
    17    16    17    1
    18    16    21    1
    19    21    20    1
    20    20    19    1
    21    19    18    1
    22    18    17    1
    23    15    16    1
    24    19    22    1
    25    22    23    1
    26    31    24    1
    27    22    25   am
    28    25    26    2
    29    25    27    1
    30    28    29   ar
    31    33    28   ar
    32    32    33   ar
    33    32    31   ar
    34    31    30   ar
    35    30    29   ar
    36    27    28    1
    37     1    34    1
    38     3    35    1
    39     4    36    1
    40     5    37    1
    41     6    38    1
    42     7    39    1
    43     9    40    1
    44    10    41    1
    45    11    42    1
    46    12    43    1
    47    13    44    1
    48    14    45    1
    49    14    46    1
    50    15    47    1
    51    15    48    1
    52    16    49    1
    53    17    50    1
    54    17    51    1
    55    18    52    1
    56    18    53    1
    57    19    54    1
    58    20    55    1
    59    20    56    1
    60    21    57    1
    61    21    58    1
    62    23    59    1
    63    23    60    1
    64    23    61    1
    65    27    62    1
    66    27    63    1
    67    29    64    1
    68    30    65    1
    69    32    66    1
    70    33    67    1
