@<TRIPOS>MOLECULE
CCR5_06
 67 70 0 0 0
SMALL
GASTEIGER

@<TRIPOS>ATOM
      1 C1         -3.9943    1.4321   -1.5041 C.3     1  BENZYL1111    0.0140
      2 C2         -4.4351    2.6770   -0.7025 C.ar    1  BENZYL1111   -0.0398
      3 C3         -5.7829    3.0533   -0.7755 C.ar    1  BENZYL1111   -0.0580
      4 C4         -6.2719    4.1351   -0.0382 C.ar    1  BENZYL1111   -0.0615
      5 C5         -5.4073    4.8738    0.7723 C.ar    1  BENZYL1111   -0.0617
      6 C6         -4.0542    4.5323    0.8262 C.ar    1  BENZYL1111   -0.0615
      7 C7         -3.5695    3.4510    0.0837 C.ar    1  BENZYL1111   -0.0580
      8 C          -4.9729    0.2592   -1.3098 C.ar    2  PHENYL2222   -0.0398
      9 C          -5.5926    0.0344   -0.0740 C.ar    2  PHENYL2222   -0.0580
     10 C          -6.4846   -1.0292    0.0893 C.ar    2  PHENYL2222   -0.0615
     11 C          -6.7626   -1.8809   -0.9830 C.ar    2  PHENYL2222   -0.0617
     12 C          -6.1442   -1.6664   -2.2174 C.ar    2  PHENYL2222   -0.0615
     13 C          -5.2521   -0.6023   -2.3776 C.ar    2  PHENYL2222   -0.0580
     14 C14        -2.5492    0.9046   -1.2623 C.3     1  BENZYL1111   -0.0017
     15 C15        -2.3466    0.2910    0.1522 C.3     1  BENZYL1111   -0.0310
     16 N16        -0.9053    0.1872    0.5070 N.4     3  CYCLOHEXYL3333    0.2353
     17 C2         -0.1479   -0.8303   -0.2648 C.3     3  CYCLOHEXYL3333   -0.0302
     18 C3          1.3725   -0.7377    0.0230 C.3     3  CYCLOHEXYL3333    0.0063
     19 C4          1.6583   -0.8783    1.5392 C.3     3  CYCLOHEXYL3333    0.0353
     20 C5          0.8488    0.2221    2.2738 C.3     3  CYCLOHEXYL3333    0.0063
     21 C6         -0.6632    0.0783    1.9681 C.3     3  CYCLOHEXYL3333   -0.0302
     22 N22         3.1180   -0.8654    1.7427 N.am    3  CYCLOHEXYL3333   -0.3008
     23 C23         3.8539    0.3532    2.1082 C.3     3  CYCLOHEXYL3333    0.0035
     24 Cl24        8.9921    1.5567    0.5738 Cl      4  PHENYL4444   -0.0835
     25 C25         3.7949   -2.0122    1.4415 C.2     3  CYCLOHEXYL3333    0.2199
     26 O26         3.2007   -3.0315    1.1281 O.2     3  CYCLOHEXYL3333   -0.2752
     27 C27         5.3024   -2.1177    1.4542 C.3     3  CYCLOHEXYL3333    0.0493
     28 C           5.9417   -1.0889    0.5113 C.ar    4  PHENYL4444   -0.0372
     29 C           7.0543   -0.3403    0.9127 C.ar    4  PHENYL4444   -0.0397
     30 C           7.6078    0.6159    0.0569 C.ar    4  PHENYL4444    0.0412
     31 C           7.0578    0.8223   -1.2108 C.ar    4  PHENYL4444   -0.0434
     32 C           5.9571    0.0668   -1.6235 C.ar    4  PHENYL4444   -0.0601
     33 C           5.4064   -0.8904   -0.7666 C.ar    4  PHENYL4444   -0.0580
     34 H          -4.0032    1.8017   -2.5082 H       1  BENZYL1111    0.0399
     35 H          -6.4254    2.5225   -1.3841 H       1  BENZYL1111    0.0620
     36 H          -7.2710    4.3878   -0.0926 H       1  BENZYL1111    0.0618
     37 H          -5.7657    5.6665    1.3275 H       1  BENZYL1111    0.0618
     38 H          -3.4092    5.0804    1.4166 H       1  BENZYL1111    0.0618
     39 H          -2.5641    3.2202    0.1147 H       1  BENZYL1111    0.0620
     40 H          -5.3890    0.6588    0.7220 H       2  PHENYL2222    0.0620
     41 H          -6.9384   -1.1857    1.0029 H       2  PHENYL2222    0.0618
     42 H          -7.4223   -2.6655   -0.8636 H       2  PHENYL2222    0.0618
     43 H          -6.3462   -2.2940   -3.0114 H       2  PHENYL2222    0.0618
     44 H          -4.7955   -0.4504   -3.2905 H       2  PHENYL2222    0.0620
     45 H          -1.8477    1.6985   -1.4127 H       1  BENZYL1111    0.0326
     46 H          -2.3859    0.1164   -1.9673 H       1  BENZYL1111    0.0326
     47 H          -2.8027   -0.6759    0.1977 H       1  BENZYL1111    0.0815
     48 H          -2.8114    0.9438    0.8612 H       1  BENZYL1111    0.0815
     49 H          -0.5202    1.0848    0.2130 H       3  CYCLOHEXYL3333    0.2033
     50 H          -0.3295   -0.7040   -1.3117 H       3  CYCLOHEXYL3333    0.0815
     51 H          -0.4855   -1.7984    0.0413 H       3  CYCLOHEXYL3333    0.0815
     52 H           1.8947   -1.4976   -0.5199 H       3  CYCLOHEXYL3333    0.0335
     53 H           1.7169    0.2238   -0.2961 H       3  CYCLOHEXYL3333    0.0335
     54 H           1.3324   -1.8064    1.9602 H       3  CYCLOHEXYL3333    0.0504
     55 H           1.0179    0.1602    3.3285 H       3  CYCLOHEXYL3333    0.0335
     56 H           1.1779    1.1782    1.9239 H       3  CYCLOHEXYL3333    0.0335
     57 H          -1.0246   -0.8607    2.3321 H       3  CYCLOHEXYL3333    0.0815
     58 H          -1.1900    0.8672    2.4631 H       3  CYCLOHEXYL3333    0.0815
     59 H           3.1602    1.1428    2.3085 H       3  CYCLOHEXYL3333    0.0429
     60 H           4.5186    0.6354    1.3186 H       3  CYCLOHEXYL3333    0.0429
     61 H           4.4341    0.1635    2.9870 H       3  CYCLOHEXYL3333    0.0429
     62 H           5.6014   -3.1058    1.1727 H       3  CYCLOHEXYL3333    0.0407
     63 H           5.6409   -1.9119    2.4482 H       3  CYCLOHEXYL3333    0.0407
     64 H           7.4680   -0.4953    1.8454 H       4  PHENYL4444    0.0635
     65 H           7.4637    1.5314   -1.8412 H       4  PHENYL4444    0.0632
     66 H           5.5510    0.2155   -2.5605 H       4  PHENYL4444    0.0618
     67 H           4.6001   -1.4542   -1.0781 H       4  PHENYL4444    0.0620
@<TRIPOS>BOND
     1     1     2    1
     2     2     3   ar
     3     2     7   ar
     4     7     6   ar
     5     6     5   ar
     6     5     4   ar
     7     4     3   ar
     8     8     9   ar
     9     8    13   ar
    10    13    12   ar
    11    12    11   ar
    12    11    10   ar
    13    10     9   ar
    14     1     8    1
    15     1    14    1
    16    14    15    1
    17    16    17    1
    18    16    21    1
    19    21    20    1
    20    20    19    1
    21    19    18    1
    22    18    17    1
    23    15    16    1
    24    19    22    1
    25    22    23    1
    26    30    24    1
    27    22    25   am
    28    25    26    2
    29    25    27    1
    30    28    29   ar
    31    33    28   ar
    32    32    33   ar
    33    31    32   ar
    34    31    30   ar
    35    30    29   ar
    36    27    28    1
    37     1    34    1
    38     3    35    1
    39     4    36    1
    40     5    37    1
    41     6    38    1
    42     7    39    1
    43     9    40    1
    44    10    41    1
    45    11    42    1
    46    12    43    1
    47    13    44    1
    48    14    45    1
    49    14    46    1
    50    15    47    1
    51    15    48    1
    52    16    49    1
    53    17    50    1
    54    17    51    1
    55    18    52    1
    56    18    53    1
    57    19    54    1
    58    20    55    1
    59    20    56    1
    60    21    57    1
    61    21    58    1
    62    23    59    1
    63    23    60    1
    64    23    61    1
    65    27    62    1
    66    27    63    1
    67    29    64    1
    68    31    65    1
    69    32    66    1
    70    33    67    1
