@<TRIPOS>MOLECULE
3_11A
 36 38 0 0 0
SMALL
GASTEIGER

@<TRIPOS>ATOM
      1 C          -1.3359    4.1716    0.7247 C.ar    1  LIG11      -0.0611
      2 C          -0.0185    4.3777    1.1030 C.ar    1  LIG11      -0.0597
      3 C           0.8767    3.3069    1.0915 C.ar    1  LIG11      -0.0357
      4 C           0.4916    2.0277    0.7128 C.ar    1  LIG11       0.0721
      5 C          -0.8447    1.7999    0.3309 C.ar    1  LIG11       0.0144
      6 C          -1.7473    2.8963    0.3398 C.ar    1  LIG11      -0.0518
      7 N           1.4257    1.0622    0.7262 N.ar    1  LIG11      -0.2513
      8 C           1.0941   -0.1978    0.3663 C.ar    1  LIG11       0.0458
      9 C          -0.1889   -0.5282   -0.0295 C.ar    1  LIG11      -0.0255
     10 C          -1.1641    0.4747   -0.0488 C.ar    1  LIG11       0.0698
     11 C          -2.5412    0.0957   -0.4510 C.2     1  LIG11       0.3396
     12 O          -3.5597    0.4890    0.0905 O.2     1  LIG11      -0.2449
     13 O          -2.4760   -0.7378   -1.5215 O.3     1  LIG11      -0.4644
     14 C           2.1803   -1.2432    0.3877 C.3     1  LIG11       0.0014
     15 C           3.2703   -1.0095   -0.6635 C.3     1  LIG11      -0.0448
     16 C           4.5299   -1.6768   -0.1064 C.3     1  LIG11      -0.0524
     17 C           4.1927   -2.1174    1.3157 C.3     1  LIG11      -0.0524
     18 C           2.9681   -1.3002    1.6974 C.3     1  LIG11      -0.0448
     19 H          -2.0446    4.9958    0.7287 H       1  LIG11       0.0618
     20 C          -3.7529   -1.1498   -2.0117 C.3     1  LIG11       0.0820
     21 H           0.3186    5.3652    1.4066 H       1  LIG11       0.0618
     22 H           1.9101    3.4755    1.3872 H       1  LIG11       0.0639
     23 H          -2.7876    2.7668    0.0476 H       1  LIG11       0.0624
     24 H          -0.4331   -1.5475   -0.3122 H       1  LIG11       0.0644
     25 H           1.7386   -2.2348    0.2150 H       1  LIG11       0.0364
     26 H           3.4650    0.0588   -0.8196 H       1  LIG11       0.0272
     27 H           2.9865   -1.4275   -1.6355 H       1  LIG11       0.0272
     28 H           5.3614   -0.9631   -0.1036 H       1  LIG11       0.0265
     29 H           4.8356   -2.5324   -0.7175 H       1  LIG11       0.0265
     30 H           5.0272   -1.9633    2.0061 H       1  LIG11       0.0265
     31 H           3.9458   -3.1858    1.3228 H       1  LIG11       0.0265
     32 H           3.2771   -0.3028    2.0331 H       1  LIG11       0.0272
     33 H           2.3968   -1.7648    2.5073 H       1  LIG11       0.0272
     34 H          -3.5899   -1.8097   -2.8683 H       1  LIG11       0.0661
     35 H          -4.3326   -0.2839   -2.3466 H       1  LIG11       0.0661
     36 H          -4.2965   -1.7076   -1.2428 H       1  LIG11       0.0661
@<TRIPOS>BOND
     1    34    20    1
     2    35    20    1
     3    20    13    1
     4    20    36    1
     5    27    15    1
     6    13    11    1
     7    26    15    1
     8    29    16    1
     9    15    16    1
    10    15    14    1
    11    11    10    1
    12    11    12    2
    13    24     9    1
    14    16    28    1
    15    16    17    1
    16    10     9   ar
    17    10     5   ar
    18     9     8   ar
    19    23     6    1
    20    25    14    1
    21     5     6   ar
    22     5     4   ar
    23     6     1   ar
    24     8    14    1
    25     8     7   ar
    26    14    18    1
    27     4     7   ar
    28     4     3   ar
    29     1    19    1
    30     1     2   ar
    31     3     2   ar
    32     3    22    1
    33     2    21    1
    34    17    31    1
    35    17    18    1
    36    17    30    1
    37    18    32    1
    38    18    33    1
