@<TRIPOS>MOLECULE
3_11B
 49 52 0 0 0
SMALL
GASTEIGER

@<TRIPOS>ATOM
      1 C          -1.3541    4.1582    0.7397 C.ar    1  LIG11      -0.0608
      2 C          -0.0378    4.3822    1.1128 C.ar    1  LIG11      -0.0563
      3 C           0.9045    3.3386    1.0799 C.ar    1  LIG11      -0.0183
      4 C           0.5104    2.0412    0.7032 C.ar    1  LIG11       0.0755
      5 C          -0.8268    1.8075    0.3156 C.ar    1  LIG11       0.0146
      6 C          -1.7448    2.8856    0.3409 C.ar    1  LIG11      -0.0518
      7 N           1.4177    1.0447    0.7297 N.ar    1  LIG11      -0.2510
      8 C           1.0778   -0.2153    0.3806 C.ar    1  LIG11       0.0459
      9 C          -0.1998   -0.5338   -0.0287 C.ar    1  LIG11      -0.0255
     10 C          -1.1584    0.4820   -0.0567 C.ar    1  LIG11       0.0698
     11 C          -2.5226    0.1236   -0.5166 C.2     1  LIG11       0.3396
     12 O          -3.1957    0.7856   -1.2872 O.2     1  LIG11      -0.2449
     13 O          -2.8943   -1.0423    0.0729 O.3     1  LIG11      -0.4644
     14 C           2.1611   -1.2704    0.4271 C.3     1  LIG11       0.0014
     15 C           3.2320   -1.0317   -0.6543 C.3     1  LIG11      -0.0448
     16 C           4.5726   -1.1304    0.0636 C.3     1  LIG11      -0.0524
     17 C           4.2678   -0.6434    1.4687 C.3     1  LIG11      -0.0524
     18 C           2.9192   -1.2831    1.7673 C.3     1  LIG11      -0.0448
     19 C           2.3460    3.5907    1.5077 C.3     1  LIG11      -0.0138
     20 C          -4.2090   -1.4746   -0.2805 C.3     1  LIG11       0.0820
     21 C           2.9426    4.9664    1.1361 C.3     1  LIG11      -0.0461
     22 C           3.1713    5.6852    2.4596 C.3     1  LIG11      -0.0525
     23 C           3.4988    4.5552    3.4196 C.3     1  LIG11      -0.0525
     24 C           2.4994    3.4740    3.0360 C.3     1  LIG11      -0.0461
     25 H          -2.0765    4.9703    0.7607 H       1  LIG11       0.0618
     26 H           0.2465    5.3796    1.4384 H       1  LIG11       0.0621
     27 H          -2.7853    2.7446    0.0550 H       1  LIG11       0.0624
     28 H          -0.4501   -1.5472   -0.3252 H       1  LIG11       0.0644
     29 H           1.7058   -2.2586    0.2824 H       1  LIG11       0.0364
     30 H           3.1354   -0.0426   -1.1186 H       1  LIG11       0.0272
     31 H           3.1606   -1.7712   -1.4592 H       1  LIG11       0.0272
     32 H           5.3492   -0.5352   -0.4253 H       1  LIG11       0.0265
     33 H           4.9087   -2.1738    0.0894 H       1  LIG11       0.0265
     34 H           4.1869    0.4495    1.4862 H       1  LIG11       0.0265
     35 H           5.0358   -0.9417    2.1879 H       1  LIG11       0.0265
     36 H           2.3949   -0.7779    2.5850 H       1  LIG11       0.0272
     37 H           3.0814   -2.3235    2.0773 H       1  LIG11       0.0272
     38 H           2.9964    2.8495    1.0252 H       1  LIG11       0.0349
     39 H          -4.9527   -0.7344    0.0308 H       1  LIG11       0.0661
     40 H          -4.4108   -2.4111    0.2467 H       1  LIG11       0.0661
     41 H          -4.2741   -1.6618   -1.3570 H       1  LIG11       0.0661
     42 H           2.3408    5.5571    0.4396 H       1  LIG11       0.0271
     43 H           3.9154    4.8094    0.6514 H       1  LIG11       0.0271
     44 H           2.2573    6.2007    2.7763 H       1  LIG11       0.0265
     45 H           3.9759    6.4233    2.3961 H       1  LIG11       0.0265
     46 H           3.4032    4.8562    4.4666 H       1  LIG11       0.0265
     47 H           4.5231    4.2001    3.2557 H       1  LIG11       0.0265
     48 H           1.5492    3.6582    3.5530 H       1  LIG11       0.0271
     49 H           2.8435    2.4781    3.3349 H       1  LIG11       0.0271
@<TRIPOS>BOND
     1    31    15    1
     2    41    20    1
     3    12    11    2
     4    30    15    1
     5    15    16    1
     6    15    14    1
     7    11    10    1
     8    11    13    1
     9    32    16    1
    10    28     9    1
    11    20    39    1
    12    20    13    1
    13    20    40    1
    14    10     9   ar
    15    10     5   ar
    16     9     8   ar
    17    27     6    1
    18    16    33    1
    19    16    17    1
    20    29    14    1
    21     5     6   ar
    22     5     4   ar
    23     6     1   ar
    24     8    14    1
    25     8     7   ar
    26    14    18    1
    27    42    21    1
    28    43    21    1
    29     4     7   ar
    30     4     3   ar
    31     1    25    1
    32     1     2   ar
    33    38    19    1
    34     3     2   ar
    35     3    19    1
    36     2    26    1
    37    21    19    1
    38    21    22    1
    39    17    34    1
    40    17    18    1
    41    17    35    1
    42    19    24    1
    43    18    37    1
    44    18    36    1
    45    45    22    1
    46    22    44    1
    47    22    23    1
    48    24    49    1
    49    24    23    1
    50    24    48    1
    51    47    23    1
    52    23    46    1
