@<TRIPOS>MOLECULE
3_11C
 39 41 0 0 0
SMALL
GASTEIGER

@<TRIPOS>ATOM
      1 C          -1.3356    4.1717    0.7239 C.ar    1  LIG11      -0.0611
      2 C          -0.0184    4.3778    1.1029 C.ar    1  LIG11      -0.0597
      3 C           0.8766    3.3069    1.0922 C.ar    1  LIG11      -0.0357
      4 C           0.4916    2.0277    0.7134 C.ar    1  LIG11       0.0721
      5 C          -0.8446    1.7997    0.3309 C.ar    1  LIG11       0.0144
      6 C          -1.7470    2.8963    0.3392 C.ar    1  LIG11      -0.0518
      7 N           1.4257    1.0623    0.7279 N.ar    1  LIG11      -0.2513
      8 C           1.0944   -0.1966    0.3629 C.ar    1  LIG11       0.0458
      9 C          -0.1896   -0.5289   -0.0285 C.ar    1  LIG11      -0.0255
     10 C          -1.1645    0.4741   -0.0479 C.ar    1  LIG11       0.0698
     11 C          -2.5420    0.0946   -0.4482 C.2     1  LIG11       0.3396
     12 O          -3.5601    0.4898    0.0926 O.2     1  LIG11      -0.2449
     13 O          -2.4776   -0.7422   -1.5163 O.3     1  LIG11      -0.4644
     14 C           2.1854   -1.2490    0.4011 C.3     1  LIG11       0.0014
     15 C           2.7103   -1.4473    1.8323 C.3     1  LIG11      -0.0448
     16 C           3.8303   -2.4849    1.8780 C.3     1  LIG11      -0.0525
     17 C           4.9618   -2.1346    0.9160 C.3     1  LIG11      -0.0530
     18 C           4.4491   -1.9315   -0.5068 C.3     1  LIG11      -0.0525
     19 C           3.3311   -0.8921   -0.5597 C.3     1  LIG11      -0.0448
     20 C          -3.7548   -1.1561   -2.0043 C.3     1  LIG11       0.0820
     21 H          -2.0443    4.9960    0.7275 H       1  LIG11       0.0618
     22 H           0.3186    5.3653    1.4066 H       1  LIG11       0.0618
     23 H           1.9099    3.4755    1.3884 H       1  LIG11       0.0639
     24 H          -2.7872    2.7669    0.0466 H       1  LIG11       0.0624
     25 H          -0.4347   -1.5491   -0.3067 H       1  LIG11       0.0644
     26 H           1.7599   -2.2061    0.0679 H       1  LIG11       0.0364
     27 H           1.8936   -1.7648    2.4924 H       1  LIG11       0.0272
     28 H           3.0870   -0.4988    2.2370 H       1  LIG11       0.0272
     29 H           4.2235   -2.5574    2.8983 H       1  LIG11       0.0265
     30 H           3.4245   -3.4711    1.6212 H       1  LIG11       0.0265
     31 H           5.4605   -1.2193    1.2577 H       1  LIG11       0.0265
     32 H           5.7142   -2.9312    0.9263 H       1  LIG11       0.0265
     33 H           5.2751   -1.6169   -1.1546 H       1  LIG11       0.0265
     34 H           4.0792   -2.8857   -0.9017 H       1  LIG11       0.0265
     35 H           3.7485    0.0921   -0.3098 H       1  LIG11       0.0272
     36 H           2.9519   -0.8180   -1.5866 H       1  LIG11       0.0272
     37 H          -4.3350   -0.2913   -2.3413 H       1  LIG11       0.0661
     38 H          -4.2977   -1.7118   -1.2333 H       1  LIG11       0.0661
     39 H          -3.5922   -1.8185   -2.8590 H       1  LIG11       0.0661
@<TRIPOS>BOND
     1    39    20    1
     2    37    20    1
     3    20    13    1
     4    20    38    1
     5    36    19    1
     6    13    11    1
     7    33    18    1
     8    34    18    1
     9    19    18    1
    10    19    35    1
    11    19    14    1
    12    18    17    1
    13    11    10    1
    14    11    12    2
    15    25     9    1
    16    10     9   ar
    17    10     5   ar
    18     9     8   ar
    19    24     6    1
    20    26    14    1
    21     5     6   ar
    22     5     4   ar
    23     6     1   ar
    24     8    14    1
    25     8     7   ar
    26    14    15    1
    27     4     7   ar
    28     4     3   ar
    29     1    21    1
    30     1     2   ar
    31    17    32    1
    32    17    31    1
    33    17    16    1
    34     3     2   ar
    35     3    23    1
    36     2    22    1
    37    30    16    1
    38    15    16    1
    39    15    28    1
    40    15    27    1
    41    16    29    1
