@<TRIPOS>MOLECULE
3_12A
 33 35 0 0 0
SMALL
GASTEIGER

@<TRIPOS>ATOM
      1 C          -1.3318    4.1744    0.7229 C.ar    1  LIG11      -0.0611
      2 C          -0.0156    4.3776    1.1042 C.ar    1  LIG11      -0.0597
      3 C           0.8757    3.3044    1.0937 C.ar    1  LIG11      -0.0357
      4 C           0.4878    2.0267    0.7134 C.ar    1  LIG11       0.0721
      5 C          -0.8489    1.7971    0.3294 C.ar    1  LIG11       0.0144
      6 C          -1.7459    2.8995    0.3376 C.ar    1  LIG11      -0.0518
      7 N           1.4241    1.0651    0.7299 N.ar    1  LIG11      -0.2513
      8 C           1.0985   -0.1924    0.3582 C.ar    1  LIG11       0.0458
      9 C          -0.1862   -0.5290   -0.0266 C.ar    1  LIG11      -0.0255
     10 C          -1.1691    0.4675   -0.0457 C.ar    1  LIG11       0.0697
     11 C          -2.5481    0.0772   -0.4429 C.2     1  LIG11       0.3375
     12 O          -3.5938    0.6007   -0.1123 O.2     1  LIG11      -0.2451
     13 O          -2.5488   -0.9814   -1.2770 O.3     1  LIG11      -0.4771
     14 C           2.1840   -1.2456    0.4110 C.3     1  LIG11       0.0014
     15 C           3.4932   -0.7947   -0.2630 C.3     1  LIG11      -0.0448
     16 C           4.4594   -0.5228    0.8816 C.3     1  LIG11      -0.0524
     17 C           4.0844   -1.5800    1.9046 C.3     1  LIG11      -0.0524
     18 C           2.5617   -1.5956    1.8627 C.3     1  LIG11      -0.0448
     19 H          -2.0385    5.0005    0.7237 H       1  LIG11       0.0618
     20 H           0.3238    5.3642    1.4080 H       1  LIG11       0.0618
     21 H           1.9094    3.4701    1.3906 H       1  LIG11       0.0639
     22 H          -2.7855    2.7796    0.0415 H       1  LIG11       0.0624
     23 H          -0.4232   -1.5525   -0.3003 H       1  LIG11       0.0644
     24 H          -3.4989   -1.1221   -1.4751 H       1  LIG11       0.2954
     25 H           1.8319   -2.1485   -0.1046 H       1  LIG11       0.0364
     26 H           3.3840    0.0702   -0.9252 H       1  LIG11       0.0272
     27 H           3.8864   -1.6209   -0.8695 H       1  LIG11       0.0272
     28 H           4.2952    0.4807    1.2910 H       1  LIG11       0.0265
     29 H           5.5045   -0.5991    0.5685 H       1  LIG11       0.0265
     30 H           4.4694   -1.3509    2.9024 H       1  LIG11       0.0265
     31 H           4.4792   -2.5572    1.6022 H       1  LIG11       0.0265
     32 H           2.1677   -0.8626    2.5775 H       1  LIG11       0.0272
     33 H           2.1667   -2.5741    2.1562 H       1  LIG11       0.0272
@<TRIPOS>BOND
     1    24    13    1
     2    13    11    1
     3    26    15    1
     4    27    15    1
     5    11    12    2
     6    11    10    1
     7    23     9    1
     8    15    14    1
     9    15    16    1
    10    25    14    1
    11    10     9   ar
    12    10     5   ar
    13     9     8   ar
    14    22     6    1
    15     5     6   ar
    16     5     4   ar
    17     6     1   ar
    18     8    14    1
    19     8     7   ar
    20    14    18    1
    21    29    16    1
    22     4     7   ar
    23     4     3   ar
    24     1    19    1
    25     1     2   ar
    26    16    28    1
    27    16    17    1
    28     3     2   ar
    29     3    21    1
    30     2    20    1
    31    31    17    1
    32    18    17    1
    33    18    33    1
    34    18    32    1
    35    17    30    1
