@<TRIPOS>MOLECULE
3_13B
 29 30 0 0 0
SMALL
GASTEIGER

@<TRIPOS>ATOM
      1 C          -1.3382    4.1590    0.7301 C.ar    1  LIG11      -0.0611
      2 C          -0.0204    4.3748    1.1038 C.ar    1  LIG11      -0.0597
      3 C           0.8832    3.3111    1.0896 C.ar    1  LIG11      -0.0357
      4 C           0.5062    2.0301    0.7101 C.ar    1  LIG11       0.0712
      5 C          -0.8352    1.7956    0.3223 C.ar    1  LIG11       0.0041
      6 C          -1.7440    2.8819    0.3425 C.ar    1  LIG11      -0.0523
      7 N           1.4419    1.0675    0.7298 N.ar    1  LIG11      -0.2550
      8 C           1.0765   -0.1796    0.3757 C.ar    1  LIG11       0.0285
      9 C          -0.1999   -0.5229   -0.0225 C.ar    1  LIG11      -0.0393
     10 C          -1.1814    0.4735   -0.0645 C.ar    1  LIG11      -0.0262
     11 C          -2.5791    0.0906   -0.5013 C.3     1  LIG11       0.0707
     12 C          -3.5476   -0.0859    0.6480 C.2     1  LIG11       0.3115
     13 O          -3.2553   -0.4343    1.7833 O.2     1  LIG11      -0.2505
     14 O          -4.8193    0.1571    0.2131 O.3     1  LIG11      -0.4647
     15 H          -2.0510    4.9795    0.7411 H       1  LIG11       0.0618
     16 H           0.3104    5.3636    1.4094 H       1  LIG11       0.0618
     17 H           1.9151    3.4850    1.3867 H       1  LIG11       0.0639
     18 H          -2.7846    2.7492    0.0596 H       1  LIG11       0.0624
     19 H           1.8669   -0.9232    0.4235 H       1  LIG11       0.0830
     20 H          -0.4202   -1.5516   -0.2882 H       1  LIG11       0.0636
     21 H          -2.5594   -0.8530   -1.0602 H       1  LIG11       0.0426
     22 H          -2.9572    0.8490   -1.1968 H       1  LIG11       0.0426
     23 C          -5.8243   -0.0009    1.2225 C.3     1  LIG11       0.0897
     24 H          -5.6260    0.6858    2.0531 H       1  LIG11       0.0694
     25 H          -5.8218   -1.0341    1.5873 H       1  LIG11       0.0694
     26 C          -7.1707    0.3204    0.6036 C.3     1  LIG11      -0.0306
     27 H          -7.9734    0.2134    1.3385 H       1  LIG11       0.0262
     28 H          -7.3746   -0.3442   -0.2424 H       1  LIG11       0.0262
     29 H          -7.1815    1.3439    0.2143 H       1  LIG11       0.0262
@<TRIPOS>BOND
     1    22    11    1
     2    21    11    1
     3    11    10    1
     4    11    12    1
     5    20     9    1
     6    28    26    1
     7    10     9   ar
     8    10     5   ar
     9     9     8   ar
    10    18     6    1
    11    14    12    1
    12    14    23    1
    13    29    26    1
    14     5     6   ar
    15     5     4   ar
    16     6     1   ar
    17     8    19    1
    18     8     7   ar
    19    26    23    1
    20    26    27    1
    21    12    13    2
    22     4     7   ar
    23     4     3   ar
    24     1    15    1
    25     1     2   ar
    26     3     2   ar
    27     3    17    1
    28     2    16    1
    29    23    25    1
    30    23    24    1
