@<TRIPOS>MOLECULE
3_14D
 58 61 0 0 0
SMALL
GASTEIGER

@<TRIPOS>ATOM
      1 C          -1.3530    4.1543    0.7287 C.ar    1  LIG11      -0.0608
      2 C          -0.0385    4.3829    1.1042 C.ar    1  LIG11      -0.0563
      3 C           0.9029    3.3368    1.0965 C.ar    1  LIG11      -0.0183
      4 C           0.5174    2.0393    0.7122 C.ar    1  LIG11       0.0750
      5 C          -0.8241    1.8020    0.3240 C.ar    1  LIG11       0.0044
      6 C          -1.7420    2.8770    0.3414 C.ar    1  LIG11      -0.0523
      7 N           1.4285    1.0472    0.7218 N.ar    1  LIG11      -0.2510
      8 C           1.0827   -0.2093    0.3748 C.ar    1  LIG11       0.0453
      9 C          -0.2069   -0.5231   -0.0228 C.ar    1  LIG11      -0.0358
     10 C          -1.1783    0.4839   -0.0640 C.ar    1  LIG11      -0.0259
     11 C          -2.5783    0.1063   -0.5022 C.3     1  LIG11       0.0707
     12 C          -3.5454   -0.0770    0.6474 C.2     1  LIG11       0.3112
     13 O          -3.2534   -0.4459    1.7763 O.2     1  LIG11      -0.2505
     14 O          -4.8163    0.1844    0.2202 O.3     1  LIG11      -0.4677
     15 C           2.1521   -1.2890    0.4329 C.3     1  LIG11       0.0014
     16 C           2.6726   -1.5222    1.8621 C.3     1  LIG11      -0.0448
     17 C           3.7180   -0.5073    2.3232 C.3     1  LIG11      -0.0525
     18 C           4.8517   -0.3598    1.3156 C.3     1  LIG11      -0.0530
     19 C           4.3371   -0.0247   -0.0791 C.3     1  LIG11      -0.0525
     20 C           3.2975   -1.0351   -0.5625 C.3     1  LIG11      -0.0448
     21 C           2.3435    3.6197    1.5217 C.3     1  LIG11      -0.0138
     22 C           2.4310    4.0148    3.0067 C.3     1  LIG11      -0.0461
     23 C          -5.8122    0.0190    1.2309 C.3     1  LIG11       0.0817
     24 C           3.8771    4.2709    3.4287 C.3     1  LIG11      -0.0525
     25 C           4.5499    5.3093    2.5353 C.3     1  LIG11      -0.0530
     26 C           4.4619    4.9280    1.0601 C.3     1  LIG11      -0.0525
     27 C           3.0176    4.6774    0.6284 C.3     1  LIG11      -0.0461
     28 H          -2.0742    4.9672    0.7401 H       1  LIG11       0.0618
     29 H           0.2523    5.3851    1.4102 H       1  LIG11       0.0621
     30 H          -2.7813    2.7364    0.0580 H       1  LIG11       0.0624
     31 H          -0.4598   -1.5443   -0.2922 H       1  LIG11       0.0639
     32 H          -2.5614   -0.8339   -1.0672 H       1  LIG11       0.0426
     33 H          -2.9562    0.8676   -1.1945 H       1  LIG11       0.0426
     34 H           1.6721   -2.2274    0.1208 H       1  LIG11       0.0364
     35 H           3.1354   -2.5177    1.8971 H       1  LIG11       0.0272
     36 H           1.8416   -1.5431    2.5779 H       1  LIG11       0.0272
     37 H           3.2495    0.4667    2.4987 H       1  LIG11       0.0265
     38 H           4.1298   -0.8265    3.2879 H       1  LIG11       0.0265
     39 H           5.5423    0.4224    1.6508 H       1  LIG11       0.0265
     40 H           5.4254   -1.2941    1.2758 H       1  LIG11       0.0265
     41 H           3.9150    0.9855   -0.0854 H       1  LIG11       0.0265
     42 H           5.1787   -0.0088   -0.7817 H       1  LIG11       0.0265
     43 H           2.9018   -0.7169   -1.5348 H       1  LIG11       0.0272
     44 H           3.8143   -1.9886   -0.7365 H       1  LIG11       0.0272
     45 H           2.9400    2.7069    1.4095 H       1  LIG11       0.0349
     46 H           2.0068    3.2198    3.6325 H       1  LIG11       0.0271
     47 H           1.8394    4.9177    3.2033 H       1  LIG11       0.0271
     48 H          -5.8395   -1.0196    1.5752 H       1  LIG11       0.0661
     49 H          -6.7835    0.2638    0.7923 H       1  LIG11       0.0661
     50 H          -5.6279    0.7014    2.0666 H       1  LIG11       0.0661
     51 H           3.9019    4.6096    4.4706 H       1  LIG11       0.0265
     52 H           4.4414    3.3310    3.3851 H       1  LIG11       0.0265
     53 H           4.0728    6.2852    2.6882 H       1  LIG11       0.0265
     54 H           5.6009    5.4188    2.8252 H       1  LIG11       0.0265
     55 H           4.8963    5.7255    0.4468 H       1  LIG11       0.0265
     56 H           5.0588    4.0253    0.8796 H       1  LIG11       0.0265
     57 H           2.4701    5.6271    0.6657 H       1  LIG11       0.0271
     58 H           3.0036    4.3483   -0.4181 H       1  LIG11       0.0271
@<TRIPOS>BOND
     1    43    20    1
     2    33    11    1
     3    32    11    1
     4    42    19    1
     5    44    20    1
     6    20    19    1
     7    20    15    1
     8    11    10    1
     9    11    12    1
    10    58    27    1
    11    31     9    1
    12    41    19    1
    13    19    18    1
    14    10     9   ar
    15    10     5   ar
    16     9     8   ar
    17    30     6    1
    18    34    15    1
    19    14    12    1
    20    14    23    1
    21     5     6   ar
    22     5     4   ar
    23     6     1   ar
    24     8    15    1
    25     8     7   ar
    26    15    16    1
    27    55    26    1
    28    27    57    1
    29    27    26    1
    30    27    21    1
    31    12    13    2
    32     4     7   ar
    33     4     3   ar
    34     1    28    1
    35     1     2   ar
    36    49    23    1
    37    56    26    1
    38    26    25    1
    39     3     2   ar
    40     3    21    1
    41     2    29    1
    42    23    48    1
    43    23    50    1
    44    40    18    1
    45    18    39    1
    46    18    17    1
    47    45    21    1
    48    21    22    1
    49    16    35    1
    50    16    17    1
    51    16    36    1
    52    17    37    1
    53    17    38    1
    54    25    53    1
    55    25    54    1
    56    25    24    1
    57    22    47    1
    58    22    24    1
    59    22    46    1
    60    52    24    1
    61    24    51    1
