@<TRIPOS>MOLECULE
4_3B
 47 51 0 0 0
SMALL
GASTEIGER

@<TRIPOS>ATOM
      1 C          -1.3526    4.1493    0.7177 C.ar    1  LIG11      -0.0611
      2 C          -0.0351    4.3761    1.0985 C.ar    1  LIG11      -0.0597
      3 C           0.8813    3.3201    1.0947 C.ar    1  LIG11      -0.0357
      4 C           0.5139    2.0352    0.7175 C.ar    1  LIG11       0.0713
      5 C          -0.8170    1.8124    0.3339 C.ar    1  LIG11       0.0011
      6 C          -1.7461    2.8688    0.3355 C.ar    1  LIG11      -0.0525
      7 N           1.4297    1.0498    0.7310 N.ar    1  LIG11      -0.2503
      8 C           1.0983   -0.2248    0.3588 C.ar    1  LIG11       0.0603
      9 C          -0.2132   -0.5107   -0.0323 C.ar    1  LIG11       0.0603
     10 C          -1.1706    0.5147   -0.0383 C.ar    1  LIG11      -0.0386
     11 C          -0.7107   -1.8502   -0.3948 C.2     1  LIG11       0.2591
     12 O          -0.8365   -2.7206    0.4601 O.2     1  LIG11      -0.2688
     13 N          -1.0702   -2.0880   -1.7132 N.am    1  LIG11      -0.2495
     14 N          -0.8157   -1.1845   -2.7554 N.3     1  LIG11      -0.2541
     15 C           2.2579   -1.2339    0.4461 C.3     1  LIG11       0.0144
     16 C           2.3681   -2.1849   -0.7800 C.3     1  LIG11      -0.0390
     17 C           3.5492   -3.1614   -0.6329 C.3     1  LIG11      -0.0397
     18 C           4.8597   -2.3719   -0.5454 C.3     1  LIG11      -0.0473
     19 C           4.8184   -1.4402    0.6705 C.3     1  LIG11      -0.0397
     20 C           3.6318   -0.4738    0.5274 C.3     1  LIG11      -0.0390
     21 C           3.3593   -3.9875    0.6505 C.3     1  LIG11      -0.0473
     22 C           3.3221   -3.0599    1.8760 C.3     1  LIG11      -0.0397
     23 C           4.6370   -2.2702    1.9495 C.3     1  LIG11      -0.0473
     24 C           2.1420   -2.0788    1.7433 C.3     1  LIG11      -0.0390
     25 H          -2.0709    4.9650    0.7193 H       1  LIG11       0.0618
     26 H           0.2852    5.3699    1.4003 H       1  LIG11       0.0618
     27 H           1.9104    3.5027    1.3950 H       1  LIG11       0.0639
     28 H          -2.7784    2.6967    0.0397 H       1  LIG11       0.0624
     29 H          -2.1927    0.2895   -0.3339 H       1  LIG11       0.0632
     30 H          -1.3868   -3.0376   -1.9057 H       1  LIG11       0.1690
     31 H          -1.5612   -1.2576   -3.4515 H       1  LIG11       0.1405
     32 H           0.0478   -1.4612   -3.2300 H       1  LIG11       0.1405
     33 H           2.4762   -1.6010   -1.7034 H       1  LIG11       0.0277
     34 H           1.4727   -2.7963   -0.9022 H       1  LIG11       0.0277
     35 H           3.5814   -3.8313   -1.4998 H       1  LIG11       0.0301
     36 H           5.7095   -3.0607   -0.4633 H       1  LIG11       0.0271
     37 H           5.0097   -1.7888   -1.4623 H       1  LIG11       0.0271
     38 H           5.7529   -0.8710    0.7304 H       1  LIG11       0.0301
     39 H           3.7720    0.1469   -0.3683 H       1  LIG11       0.0277
     40 H           3.6473    0.2096    1.3875 H       1  LIG11       0.0277
     41 H           4.1782   -4.7101    0.7536 H       1  LIG11       0.0271
     42 H           2.4298   -4.5670    0.5906 H       1  LIG11       0.0271
     43 H           3.2011   -3.6571    2.7869 H       1  LIG11       0.0301
     44 H           5.4822   -2.9584    2.0733 H       1  LIG11       0.0271
     45 H           4.6314   -1.6124    2.8273 H       1  LIG11       0.0271
     46 H           1.2090   -2.6497    1.7608 H       1  LIG11       0.0277
     47 H           2.1109   -1.4209    2.6224 H       1  LIG11       0.0277
@<TRIPOS>BOND
     1    31    14    1
     2    32    14    1
     3    14    13    1
     4    30    13    1
     5    13    11   am
     6    33    16    1
     7    35    17    1
     8    37    18    1
     9    34    16    1
    10    16    17    1
    11    16    15    1
    12    17    18    1
    13    17    21    1
    14    18    36    1
    15    18    19    1
    16    11     9    1
    17    11    12    2
    18    39    20    1
    19    29    10    1
    20    10     9   ar
    21    10     5   ar
    22     9     8   ar
    23    28     6    1
    24     5     6   ar
    25     5     4   ar
    26     6     1   ar
    27     8    15    1
    28     8     7   ar
    29    15    20    1
    30    15    24    1
    31    20    19    1
    32    20    40    1
    33    42    21    1
    34    21    41    1
    35    21    22    1
    36    19    38    1
    37    19    23    1
    38     4     7   ar
    39     4     3   ar
    40     1    25    1
    41     1     2   ar
    42     3     2   ar
    43     3    27    1
    44     2    26    1
    45    24    46    1
    46    24    22    1
    47    24    47    1
    48    22    23    1
    49    22    43    1
    50    23    44    1
    51    23    45    1
