@<TRIPOS>MOLECULE
4_3C
 49 52 0 0 0
SMALL
GASTEIGER

@<TRIPOS>ATOM
      1 C          -1.3688    4.1009    0.8239 C.ar    1  LIG11      -0.0611
      2 C          -0.0301    4.3678    1.1244 C.ar    1  LIG11      -0.0597
      3 C           0.9141    3.3406    1.0492 C.ar    1  LIG11      -0.0357
      4 C           0.5217    2.0640    0.6402 C.ar    1  LIG11       0.0716
      5 C          -0.7974    1.8129    0.2496 C.ar    1  LIG11       0.0046
      6 C          -1.7562    2.8194    0.4200 C.ar    1  LIG11      -0.0523
      7 N           1.4258    1.0657    0.6256 N.ar    1  LIG11      -0.2506
      8 C           1.0381   -0.2230    0.5391 C.ar    1  LIG11       0.0575
      9 C          -0.2724   -0.5090    0.1339 C.ar    1  LIG11       0.0635
     10 C          -1.0860    0.5516   -0.2888 C.ar    1  LIG11      -0.0212
     11 C          -0.7951   -1.9287    0.1821 C.2     1  LIG11       0.2594
     12 O          -0.1285   -2.8261   -0.3058 O.2     1  LIG11      -0.2688
     13 N          -1.9899   -2.1955    0.7680 N.am    1  LIG11      -0.2495
     14 N          -2.4272   -3.2366    0.8693 N.3     1  LIG11      -0.2541
     15 C           2.0464   -1.3234    0.9017 C.3     1  LIG11       0.0021
     16 C           3.4405   -0.7609    1.2773 C.3     1  LIG11      -0.0448
     17 C           4.0591   -1.9250    2.0808 C.3     1  LIG11      -0.0524
     18 C           2.8941   -2.3068    3.0217 C.3     1  LIG11      -0.0524
     19 C           1.6215   -2.1637    2.1416 C.3     1  LIG11      -0.0448
     20 C          -2.2272    0.3761   -1.3170 C.3     1  LIG11      -0.0145
     21 C          -2.1659    1.4636   -2.4227 C.3     1  LIG11      -0.0462
     22 C          -3.1620    0.9376   -3.4775 C.3     1  LIG11      -0.0525
     23 C          -2.8604   -0.5789   -3.5356 C.3     1  LIG11      -0.0525
     24 C          -2.1571   -0.9108   -2.1881 C.3     1  LIG11      -0.0462
     25 H          -2.1094    4.8907    0.9070 H       1  LIG11       0.0618
     26 H           0.2748    5.3674    1.4189 H       1  LIG11       0.0618
     27 H           1.9510    3.5272    1.3087 H       1  LIG11       0.0639
     28 H          -2.8089    2.6188    0.2528 H       1  LIG11       0.0624
     29 H          -2.5044   -1.4265    1.1560 H       1  LIG11       0.1690
     30 H          -1.8219   -3.8505    1.5282 H       1  LIG11       0.1405
     31 H          -2.5207   -3.7278   -0.0938 H       1  LIG11       0.1405
     32 H           2.1880   -1.9773    0.0243 H       1  LIG11       0.0364
     33 H           3.3429    0.1152    1.9402 H       1  LIG11       0.0272
     34 H           4.0408   -0.4760    0.3977 H       1  LIG11       0.0272
     35 H           4.9734   -1.6342    2.6240 H       1  LIG11       0.0265
     36 H           4.2944   -2.7656    1.4063 H       1  LIG11       0.0265
     37 H           2.8592   -1.5770    3.8490 H       1  LIG11       0.0265
     38 H           3.0143   -3.3146    3.4526 H       1  LIG11       0.0265
     39 H           0.8145   -1.6716    2.7096 H       1  LIG11       0.0272
     40 H           1.2640   -3.1589    1.8291 H       1  LIG11       0.0272
     41 H          -3.2020    0.4134   -0.8029 H       1  LIG11       0.0349
     42 H          -1.1499    1.4996   -2.8512 H       1  LIG11       0.0271
     43 H          -2.4448    2.4780   -2.1019 H       1  LIG11       0.0271
     44 H          -3.0545    1.4395   -4.4535 H       1  LIG11       0.0265
     45 H          -4.1893    1.1024   -3.1088 H       1  LIG11       0.0265
     46 H          -2.1894   -0.7994   -4.3839 H       1  LIG11       0.0265
     47 H          -3.7903   -1.1555   -3.6776 H       1  LIG11       0.0265
     48 H          -1.1011   -1.1580   -2.3912 H       1  LIG11       0.0271
     49 H          -2.6381   -1.7753   -1.7063 H       1  LIG11       0.0271
@<TRIPOS>BOND
     1    44    22    1
     2    46    23    1
     3    47    23    1
     4    23    22    1
     5    23    24    1
     6    22    45    1
     7    22    21    1
     8    42    21    1
     9    21    43    1
    10    21    20    1
    11    48    24    1
    12    24    49    1
    13    24    20    1
    14    20    41    1
    15    20    10    1
    16    12    11    2
    17    10     9   ar
    18    10     5   ar
    19    31    14    1
    20    32    15    1
    21     9    11    1
    22     9     8   ar
    23    11    13   am
    24     5     6   ar
    25     5     4   ar
    26    28     6    1
    27    34    16    1
    28     6     1   ar
    29     8     7   ar
    30     8    15    1
    31     7     4   ar
    32     4     3   ar
    33    13    14    1
    34    13    29    1
    35     1    25    1
    36     1     2   ar
    37    14    30    1
    38    15    16    1
    39    15    19    1
    40     3     2   ar
    41     3    27    1
    42     2    26    1
    43    16    33    1
    44    16    17    1
    45    36    17    1
    46    40    19    1
    47    17    35    1
    48    17    18    1
    49    19    39    1
    50    19    18    1
    51    18    38    1
    52    18    37    1
