@<TRIPOS>MOLECULE
4_4B
 36 38 0 0 0
SMALL
GASTEIGER
Energy = 0

@<TRIPOS>ATOM
      1 C          -1.3445    4.1645    0.7481 C.ar    1  LIG1       -0.0611
      2 C          -0.0204    4.3774    1.1010 C.ar    1  LIG1       -0.0597
      3 C           0.8810    3.3114    1.0759 C.ar    1  LIG1       -0.0357
      4 C           0.4980    2.0318    0.6976 C.ar    1  LIG1        0.0720
      5 C          -0.8361    1.8077    0.3100 C.ar    1  LIG1        0.0125
      6 C          -1.7538    2.8900    0.3599 C.ar    1  LIG1       -0.0518
      7 N           1.4253    1.0598    0.7242 N.ar    1  LIG1       -0.2513
      8 C           1.0838   -0.2078    0.3979 C.ar    1  LIG1        0.0458
      9 C          -0.1957   -0.5304   -0.0168 C.ar    1  LIG1       -0.0273
     10 C          -1.1489    0.4866   -0.0810 C.ar    1  LIG1        0.0488
     11 C          -2.4816    0.0918   -0.5869 C.2     1  LIG1        0.2581
     12 O          -3.0770   -0.8608   -0.0943 O.2     1  LIG1       -0.2689
     13 N          -2.9479    0.8224   -1.6708 N.am    1  LIG1       -0.2495
     14 N          -4.1966    0.5008   -2.2393 N.3     1  LIG1       -0.2541
     15 H          -2.0593    4.9831    0.7820 H       1  LIG1        0.0618
     16 H           0.3150    5.3646    1.4085 H       1  LIG1        0.0618
     17 H           1.9151    3.4821    1.3689 H       1  LIG1        0.0639
     18 H          -2.8047    2.7463    0.1156 H       1  LIG1        0.0624
     19 C           2.1538   -1.2828    0.4414 C.3     1  LIG1        0.0014
     20 H          -0.4531   -1.5476   -0.2976 H       1  LIG1        0.0643
     21 H          -2.3828    1.5557   -2.0968 H       1  LIG1        0.1690
     22 H          -4.1029   -0.4229   -2.6756 H       1  LIG1        0.1405
     23 H          -4.8417    0.3177   -1.4598 H       1  LIG1        0.1405
     24 C           2.9214   -1.3834   -0.8780 C.3     1  LIG1       -0.0448
     25 C           4.0115   -0.3234   -0.7725 C.3     1  LIG1       -0.0524
     26 C           4.3380   -0.2124    0.7152 C.3     1  LIG1       -0.0524
     27 C           3.2723   -1.0217    1.4567 C.3     1  LIG1       -0.0448
     28 H           1.6686   -2.2374    0.6801 H       1  LIG1        0.0364
     29 H           2.2966   -1.2410   -1.7656 H       1  LIG1        0.0272
     30 H           3.3899   -2.3728   -0.9542 H       1  LIG1        0.0272
     31 H           3.6420    0.6391   -1.1451 H       1  LIG1        0.0265
     32 H           4.8922   -0.5863   -1.3667 H       1  LIG1        0.0265
     33 H           4.3264    0.8369    1.0299 H       1  LIG1        0.0265
     34 H           5.3376   -0.6042    0.9326 H       1  LIG1        0.0265
     35 H           2.9326   -0.5199    2.3687 H       1  LIG1        0.0272
     36 H           3.7127   -1.9802    1.7603 H       1  LIG1        0.0272
@<TRIPOS>BOND
     1    22    14    1
     2    14    13    1
     3    14    23    1
     4    21    13    1
     5    29    24    1
     6    13    11   am
     7    32    25    1
     8    31    25    1
     9    30    24    1
    10    24    25    1
    11    24    19    1
    12    25    26    1
    13    11    12    2
    14    11    10    1
    15    20     9    1
    16    10     9   ar
    17    10     5   ar
    18     9     8   ar
    19    18     6    1
    20     5     6   ar
    21     5     4   ar
    22     6     1   ar
    23     8    19    1
    24     8     7   ar
    25    19    28    1
    26    19    27    1
    27     4     7   ar
    28     4     3   ar
    29    26    34    1
    30    26    33    1
    31    26    27    1
    32     1    15    1
    33     1     2   ar
    34     3     2   ar
    35     3    17    1
    36     2    16    1
    37    27    36    1
    38    27    35    1
