@<TRIPOS>MOLECULE
4_7L
 65 70 0 0 0
SMALL
USER_CHARGES

@<TRIPOS>ATOM
      1 C          -1.0590    1.8460    0.3010 C.ar    1  LIG11       0.0039
      2 C          -2.0500    2.8520    0.4460 C.ar    1  LIG11      -0.0523
      3 C          -1.7370    4.1390    0.9160 C.ar    1  LIG11      -0.0611
      4 C          -0.4240    4.4880    1.2780 C.ar    1  LIG11      -0.0597
      5 C           0.5920    3.4730    1.1620 C.ar    1  LIG11      -0.0357
      6 C           0.2700    2.1830    0.6960 C.ar    1  LIG11       0.0721
      7 N           1.2520    1.2470    0.6570 N.ar    1  LIG11      -0.2421
      8 C           1.0560   -0.0400    0.2820 C.ar    1  LIG11       0.1266
      9 C          -0.2470   -0.4090   -0.1290 C.ar    1  LIG11      -0.0271
     10 C          -1.3180    0.5220   -0.1810 C.ar    1  LIG11      -0.0329
     11 C           2.1240   -0.9800    0.3310 C.2     1  LIG11       0.2666
     12 N           3.4340   -0.6060    0.5240 N.am    1  LIG11      -0.2789
     13 O           1.8330   -2.1990    0.2420 O.2     1  LIG11      -0.2682
     14 C          -2.6760    0.0680   -0.6940 C.3     1  LIG11      -0.0147
     15 C          -3.0320    0.8790   -1.9840 C.3     1  LIG11      -0.0433
     16 C          -3.7860   -0.0110    0.4100 C.3     1  LIG11      -0.0433
     17 C          -5.1610   -0.6980    0.0910 C.3     1  LIG11      -0.0405
     18 C          -4.2180    0.3980   -2.8970 C.3     1  LIG11      -0.0405
     19 C          -5.5850    1.1360   -2.6910 C.3     1  LIG11      -0.0502
     20 C          -6.0430    1.4570   -1.2460 C.3     1  LIG11      -0.0526
     21 C          -6.3290    0.2800   -0.2790 C.3     1  LIG11      -0.0502
     22 C          -4.3220   -1.1490   -3.1250 C.3     1  LIG11      -0.0502
     23 C          -5.3310   -1.9620   -2.2710 C.3     1  LIG11      -0.0526
     24 C          -5.1040   -2.0260   -0.7380 C.3     1  LIG11      -0.0502
     25 C           4.5200   -1.4470    0.5970 C.ar    1  LIG11       0.0526
     26 C           4.7510   -2.3250    1.6820 C.ar    1  LIG11       0.0495
     27 C           5.4750   -1.4410   -0.4460 C.ar    1  LIG11      -0.0298
     28 C           6.6670   -2.1970   -0.3440 C.ar    1  LIG11       0.0021
     29 C           6.8610   -2.9950    0.8170 C.ar    1  LIG11       0.0711
     30 N           5.8940   -3.0460    1.7660 N.ar    1  LIG11      -0.2531
     31 C           7.6790   -2.1670   -1.3310 C.ar    1  LIG11      -0.0525
     32 C           8.8710   -2.8970   -1.1490 C.ar    1  LIG11      -0.0611
     33 C           9.0590   -3.6700    0.0120 C.ar    1  LIG11      -0.0597
     34 C           8.0530   -3.7250    0.9930 C.ar    1  LIG11      -0.0357
     35 H          -3.0860    2.6290    0.1880 H       1  LIG11       0.0624
     36 H          -2.5290    4.8830    1.0020 H       1  LIG11       0.0618
     37 H          -0.2060    5.4960    1.6320 H       1  LIG11       0.0618
     38 H           1.6260    3.6860    1.4310 H       1  LIG11       0.0639
     39 H          -0.4310   -1.4440   -0.4150 H       1  LIG11       0.0643
     40 H           3.6150    0.3820    0.6220 H       1  LIG11       0.1552
     41 H          -2.5800   -0.9780   -0.9840 H       1  LIG11       0.0349
     42 H          -3.3450    1.8560   -1.6150 H       1  LIG11       0.0274
     43 H          -2.1460    0.7920   -2.6140 H       1  LIG11       0.0274
     44 H          -3.3460   -0.6280    1.1930 H       1  LIG11       0.0274
     45 H          -4.0400    1.0290    0.6140 H       1  LIG11       0.0274
     46 H          -5.4570   -1.0730    1.0710 H       1  LIG11       0.0301
     47 H          -3.9040    0.7610   -3.8760 H       1  LIG11       0.0301
     48 H          -5.4540    2.1110   -3.1600 H       1  LIG11       0.0268
     49 H          -6.3390    0.4460   -3.0700 H       1  LIG11       0.0268
     50 H          -5.2010    1.9860   -0.7990 H       1  LIG11       0.0265
     51 H          -7.0020    1.9610   -1.3630 H       1  LIG11       0.0265
     52 H          -6.6020    0.7590    0.6610 H       1  LIG11       0.0268
     53 H          -7.0550   -0.3370   -0.8080 H       1  LIG11       0.0268
     54 H          -4.6790   -1.2600   -4.1490 H       1  LIG11       0.0268
     55 H          -3.3450   -1.5420   -2.8420 H       1  LIG11       0.0268
     56 H          -6.2820   -1.4430   -2.3910 H       1  LIG11       0.0265
     57 H          -5.2240   -2.9910   -2.6130 H       1  LIG11       0.0265
     58 H          -5.9330   -2.6270   -0.3640 H       1  LIG11       0.0268
     59 H          -4.0800   -2.3820   -0.6280 H       1  LIG11       0.0268
     60 H           4.0220   -2.4510    2.4830 H       1  LIG11       0.0849
     61 H           5.2890   -0.8460   -1.3400 H       1  LIG11       0.0643
     62 H           7.5390   -1.5790   -2.2380 H       1  LIG11       0.0624
     63 H           9.6520   -2.8630   -1.9090 H       1  LIG11       0.0618
     64 H           9.9850   -4.2280    0.1520 H       1  LIG11       0.0618
     65 H           8.1970   -4.3310    1.8870 H       1  LIG11       0.0639
@<TRIPOS>BOND
     1     1     2   ar
     2     1     6   ar
     3     1    10   ar
     4     2     3   ar
     5     3     4   ar
     6     4     5   ar
     7     5     6   ar
     8     6     7   ar
     9     7     8   ar
    10     8     9   ar
    11     9    10   ar
    12     8    11    1
    13    11    12   am
    14    11    13    2
    15    10    14    1
    16    14    15    1
    17    14    16    1
    18    16    17    1
    19    15    18    1
    20    18    19    1
    21    19    20    1
    22    20    21    1
    23    17    21    1
    24    18    22    1
    25    22    23    1
    26    23    24    1
    27    24    17    1
    28    12    25    1
    29    26    25   ar
    30    25    27   ar
    31    26    30   ar
    32    27    28   ar
    33    29    30   ar
    34    29    34   ar
    35    28    29   ar
    36    28    31   ar
    37    31    32   ar
    38    32    33   ar
    39    33    34   ar
    40     2    35    1
    41     3    36    1
    42     4    37    1
    43     5    38    1
    44     9    39    1
    45    12    40    1
    46    14    41    1
    47    15    42    1
    48    15    43    1
    49    16    44    1
    50    16    45    1
    51    17    46    1
    52    18    47    1
    53    19    48    1
    54    19    49    1
    55    20    50    1
    56    20    51    1
    57    21    52    1
    58    21    53    1
    59    22    54    1
    60    22    55    1
    61    23    56    1
    62    23    57    1
    63    24    58    1
    64    24    59    1
    65    26    60    1
    66    27    61    1
    67    31    62    1
    68    32    63    1
    69    33    64    1
    70    34    65    1
