@<TRIPOS>MOLECULE
1c
 40 41 0 0 0
SMALL
GASTEIGER

@<TRIPOS>ATOM
      1 C           4.6000   -1.3124   -6.2604 C.3     1  LIG111     -0.0904
      2 H           4.7912   -1.6738   -7.3107 H       1  LIG111      0.0059
      3 H           5.5658   -0.9123   -5.8370 H       1  LIG111      0.0059
      4 C           4.0846   -2.4585   -5.4028 C.3     1  LIG111     -0.0605
      5 H           4.8811   -3.2515   -5.3770 H       1  LIG111      0.0253
      6 H           3.1704   -2.9206   -5.8607 H       1  LIG111      0.0253
      7 C           3.7865   -1.9943   -3.9813 C.3     1  LIG111     -0.0064
      8 H           4.7428   -1.6144   -3.5146 H       1  LIG111      0.0355
      9 C           2.7964   -0.8246   -4.0210 C.3     1  LIG111      0.0485
     10 H           1.7941   -1.1902   -4.3860 H       1  LIG111      0.0401
     11 C           3.3192    0.3011   -4.9213 C.3     1  LIG111     -0.0773
     12 H           4.2675    0.7245   -4.4769 H       1  LIG111      0.0067
     13 H           2.5511    1.1234   -4.9931 H       1  LIG111      0.0067
     14 N           3.6225   -0.1741   -6.3094 N.4     1  LIG111      0.3784
     15 H           2.7482   -0.5269   -6.7215 H       1  LIG111     -0.0822
     16 C           4.1339    0.9361   -7.1498 C.3     1  LIG111     -0.1032
     17 H           3.3632    1.7503   -7.2097 H       1  LIG111      0.0023
     18 H           4.3521    0.5505   -8.1820 H       1  LIG111      0.0023
     19 H           5.0750    1.3437   -6.6919 H       1  LIG111      0.0023
     20 C           2.5776   -0.2418   -2.6409 C.2     1  LIG111      0.3090
     21 O           3.4422    0.2314   -1.9100 O.2     1  LIG111     -0.2506
     22 O           1.2793   -0.3106   -2.2404 O.3     1  LIG111     -0.4648
     23 C           0.9366    0.2138   -0.9366 C.3     1  LIG111      0.0897
     24 H           1.8996    0.6082   -0.5161 H       1  LIG111      0.0694
     25 H           0.5344   -0.5956   -0.2731 H       1  LIG111      0.0694
     26 C          -0.0738    1.3137   -1.1474 C.3     1  LIG111     -0.0306
     27 H          -1.0036    0.9153   -1.6184 H       1  LIG111      0.0262
     28 H           0.3423    2.1149   -1.8039 H       1  LIG111      0.0262
     29 H          -0.3339    1.7588   -0.1559 H       1  LIG111      0.0262
     30 C           3.2706   -3.1388   -3.1693 C.ar    1  LIG111     -0.0435
     31 C           3.9406   -3.5715   -2.0185 C.ar    1  LIG111     -0.0569
     32 H           4.8742   -3.0835   -1.7009 H       1  LIG111      0.0621
     33 C           3.4401   -4.6290   -1.2643 C.ar    1  LIG111     -0.0431
     34 H           3.9774   -4.9664   -0.3635 H       1  LIG111      0.0632
     35 C           2.2550   -5.2634   -1.6571 C.ar    1  LIG111      0.0410
     36 C           1.5772   -4.8363   -2.8046 C.ar    1  LIG111     -0.0431
     37 H           0.6449   -5.3340   -3.1168 H       1  LIG111      0.0632
     38 C           2.0860   -3.7784   -3.5546 C.ar    1  LIG111     -0.0569
     39 H           1.5470   -3.4509   -4.4573 H       1  LIG111      0.0621
     40 CL          1.6428   -6.5481   -0.7419 Cl      1  LIG111     -0.0835
@<TRIPOS>BOND
     1    18    16    1
     2     2     1    1
     3    17    16    1
     4    16    19    1
     5    16    14    1
     6    15    14    1
     7    14     1    1
     8    14    11    1
     9     1     3    1
    10     1     4    1
    11     6     4    1
    12     4     5    1
    13     4     7    1
    14    13    11    1
    15    11    12    1
    16    11     9    1
    17    39    38    1
    18    10     9    1
    19     9     7    1
    20     9    20    1
    21     7     8    1
    22     7    30    1
    23    38    30   ar
    24    38    36   ar
    25    30    31   ar
    26    37    36    1
    27    36    35   ar
    28    20    22    1
    29    20    21    2
    30    22    23    1
    31    31    32    1
    32    31    33   ar
    33    28    26    1
    34    35    33   ar
    35    35    40    1
    36    27    26    1
    37    33    34    1
    38    26    23    1
    39    26    29    1
    40    23    24    1
    41    23    25    1
