@<TRIPOS>MOLECULE
1o
 35 36 0 0 0
SMALL
GASTEIGER

@<TRIPOS>ATOM
      1 C           4.4850   -1.4473   -6.2914 C.3     1  LIG111     -0.0904
      2 H           4.4314   -1.6430   -7.4000 H       1  LIG111      0.0059
      3 H           5.5640   -1.3026   -5.9980 H       1  LIG111      0.0059
      4 C           3.8810   -2.6066   -5.5147 C.3     1  LIG111     -0.0609
      5 H           4.5059   -3.5176   -5.7215 H       1  LIG111      0.0253
      6 H           2.8424   -2.8274   -5.8774 H       1  LIG111      0.0253
      7 C           3.8669   -2.3308   -4.0149 C.3     1  LIG111     -0.0143
      8 H           4.9333   -2.2212   -3.6574 H       1  LIG111      0.0351
      9 C           3.1542   -1.0069   -3.7211 C.3     1  LIG111     -0.0259
     10 H           2.0589   -1.1129   -3.9552 H       1  LIG111      0.0310
     11 C           3.7622    0.1301   -4.5480 C.3     1  LIG111     -0.0855
     12 H           4.8315    0.2963   -4.2227 H       1  LIG111      0.0062
     13 H           3.1811    1.0803   -4.3789 H       1  LIG111      0.0062
     14 N           3.7627   -0.1594   -6.0192 N.4     1  LIG111      0.3781
     15 H           2.7863   -0.2796   -6.3187 H       1  LIG111     -0.0822
     16 C           4.3629    0.9617   -6.7814 C.3     1  LIG111     -0.1032
     17 H           3.7698    1.8971   -6.5956 H       1  LIG111      0.0023
     18 H           4.3482    0.7167   -7.8773 H       1  LIG111      0.0023
     19 H           5.4229    1.1199   -6.4467 H       1  LIG111      0.0023
     20 C           3.2776   -0.6273   -2.2422 C.3     1  LIG111      0.0459
     21 H           3.3354   -1.5634   -1.6245 H       1  LIG111      0.0559
     22 H           2.3858   -0.0209   -1.9275 H       1  LIG111      0.0559
     23 O           4.4524    0.1533   -2.0917 O.3     1  LIG111     -0.3948
     24 H           5.1948   -0.3935   -2.3788 H       1  LIG111      0.2094
     25 C           3.2266   -3.4744   -3.2938 C.ar    1  LIG111     -0.0440
     26 C           4.0170   -4.5419   -2.8514 C.ar    1  LIG111     -0.0569
     27 H           5.1049   -4.5337   -3.0236 H       1  LIG111      0.0621
     28 C           3.4413   -5.6257   -2.1927 C.ar    1  LIG111     -0.0431
     29 H           4.0724   -6.4616   -1.8503 H       1  LIG111      0.0632
     30 C           2.0592   -5.6469   -1.9711 C.ar    1  LIG111      0.0410
     31 C           1.2598   -4.5851   -2.4103 C.ar    1  LIG111     -0.0431
     32 H           0.1718   -4.6021   -2.2380 H       1  LIG111      0.0632
     33 C           1.8454   -3.5066   -3.0677 C.ar    1  LIG111     -0.0569
     34 H           1.2069   -2.6784   -3.4102 H       1  LIG111      0.0621
     35 CL          1.3522   -6.9601   -1.1710 Cl      1  LIG111     -0.0835
@<TRIPOS>BOND
     1    18    16    1
     2     2     1    1
     3    16    17    1
     4    16    19    1
     5    16    14    1
     6    15    14    1
     7     1    14    1
     8     1     3    1
     9     1     4    1
    10    14    11    1
    11     6     4    1
    12     5     4    1
    13     4     7    1
    14    11    13    1
    15    11    12    1
    16    11     9    1
    17     7     9    1
    18     7     8    1
    19     7    25    1
    20    10     9    1
    21     9    20    1
    22    34    33    1
    23    25    33   ar
    24    25    26   ar
    25    33    31   ar
    26    27    26    1
    27    26    28   ar
    28    31    32    1
    29    31    30   ar
    30    24    23    1
    31    20    23    1
    32    20    22    1
    33    20    21    1
    34    28    30   ar
    35    28    29    1
    36    30    35    1
