@<TRIPOS>MOLECULE
1u
 49 50 0 0 0
SMALL
GASTEIGER

@<TRIPOS>ATOM
      1 C           4.2526   -2.2228   -6.6255 C.3     1  LIG111     -0.0904
      2 H           3.9338   -2.5211   -7.6646 H       1  LIG111      0.0059
      3 H           5.3633   -2.3837   -6.5227 H       1  LIG111      0.0059
      4 C           3.5006   -3.0383   -5.5873 C.3     1  LIG111     -0.0609
      5 H           3.7904   -4.1162   -5.7237 H       1  LIG111      0.0253
      6 H           2.3946   -2.9699   -5.7674 H       1  LIG111      0.0253
      7 C           3.8360   -2.6068   -4.1655 C.3     1  LIG111     -0.0133
      8 H           4.9204   -2.8567   -3.9606 H       1  LIG111      0.0351
      9 C           3.6742   -1.0941   -3.9877 C.3     1  LIG111     -0.0147
     10 H           2.5733   -0.8516   -4.0033 H       1  LIG111      0.0321
     11 C           4.3848   -0.3108   -5.0927 C.3     1  LIG111     -0.0844
     12 H           5.5024   -0.4444   -4.9973 H       1  LIG111      0.0063
     13 H           4.1480    0.7864   -4.9916 H       1  LIG111      0.0063
     14 N           3.9868   -0.7533   -6.4681 N.4     1  LIG111      0.3781
     15 H           2.9743   -0.6047   -6.5691 H       1  LIG111     -0.0822
     16 C           4.6929    0.0352   -7.5060 C.3     1  LIG111     -0.1032
     17 H           4.4338    1.1216   -7.3878 H       1  LIG111      0.0023
     18 H           4.3785   -0.3156   -8.5249 H       1  LIG111      0.0023
     19 H           5.8013   -0.1033   -7.3891 H       1  LIG111      0.0023
     20 C           4.2152   -0.6286   -2.6299 C.3     1  LIG111      0.0941
     21 H           5.3188   -0.4317   -2.7113 H       1  LIG111      0.0700
     22 H           4.0123   -1.4128   -1.8495 H       1  LIG111      0.0700
     23 O           3.5222    0.5170   -2.1372 O.3     1  LIG111     -0.4640
     24 C           2.1651    0.4305   -1.9123 C.2     1  LIG111      0.3125
     25 C           1.5618    1.7186   -1.3910 C.3     1  LIG111      0.0594
     26 C           1.6279    1.7037    0.1305 C.3     1  LIG111     -0.0499
     27 H           2.6915    1.6047    0.4561 H       1  LIG111      0.0240
     28 H           1.0487    0.8405    0.5377 H       1  LIG111      0.0240
     29 H           1.2083    2.6514    0.5457 H       1  LIG111      0.0240
     30 C           0.1149    1.8194   -1.8503 C.3     1  LIG111     -0.0499
     31 H          -0.3414    2.7718   -1.4877 H       1  LIG111      0.0240
     32 H          -0.4794    0.9586   -1.4610 H       1  LIG111      0.0240
     33 H           0.0758    1.8030   -2.9665 H       1  LIG111      0.0240
     34 C           2.3656    2.8904   -1.9361 C.3     1  LIG111     -0.0499
     35 H           2.3467    2.8918   -3.0520 H       1  LIG111      0.0240
     36 H           3.4285    2.8206   -1.6007 H       1  LIG111      0.0240
     37 H           1.9289    3.8479   -1.5633 H       1  LIG111      0.0240
     38 O           1.6223   -0.6500   -2.1383 O.2     1  LIG111     -0.2503
     39 C           2.9814   -3.3529   -3.1877 C.ar    1  LIG111     -0.0439
     40 C           3.5922   -4.1606   -2.2206 C.ar    1  LIG111     -0.0569
     41 H           4.6933   -4.2195   -2.1663 H       1  LIG111      0.0621
     42 C           2.8194   -4.8788   -1.3097 C.ar    1  LIG111     -0.0431
     43 H           3.3094   -5.5137   -0.5541 H       1  LIG111      0.0632
     44 C           1.4247   -4.7879   -1.3605 C.ar    1  LIG111      0.0410
     45 C           0.8055   -3.9743   -2.3170 C.ar    1  LIG111     -0.0431
     46 H          -0.2928   -3.8987   -2.3535 H       1  LIG111      0.0632
     47 C           1.5849   -3.2603   -3.2227 C.ar    1  LIG111     -0.0569
     48 H           1.0867   -2.6197   -3.9654 H       1  LIG111      0.0621
     49 CL          0.4790   -5.6608   -0.2597 Cl      1  LIG111     -0.0835
@<TRIPOS>BOND
     1    18    16    1
     2     2     1    1
     3    16    19    1
     4    16    17    1
     5    16    14    1
     6     1     3    1
     7     1    14    1
     8     1     4    1
     9    15    14    1
    10    14    11    1
    11     6     4    1
    12     5     4    1
    13     4     7    1
    14    11    12    1
    15    11    13    1
    16    11     9    1
    17     7     9    1
    18     7     8    1
    19     7    39    1
    20    10     9    1
    21     9    20    1
    22    48    47    1
    23    47    39   ar
    24    47    45   ar
    25    39    40   ar
    26    35    34    1
    27    33    30    1
    28    21    20    1
    29    20    23    1
    30    20    22    1
    31    46    45    1
    32    45    44   ar
    33    40    41    1
    34    40    42   ar
    35    38    24    2
    36    23    24    1
    37    34    36    1
    38    34    37    1
    39    34    25    1
    40    24    25    1
    41    30    31    1
    42    30    32    1
    43    30    25    1
    44    25    26    1
    45    44    42   ar
    46    44    49    1
    47    42    43    1
    48    26    27    1
    49    26    28    1
    50    26    29    1
