@<TRIPOS>MOLECULE
2b
 43 44 0 0 0
SMALL
GASTEIGER

@<TRIPOS>ATOM
      1 C           4.6552   -1.9446   -6.5036 C.3     1  LIG111     -0.0904
      2 H           4.5914   -2.1330   -7.5902 H       1  LIG111      0.0059
      3 H           5.7145   -2.0597   -6.2152 H       1  LIG111      0.0059
      4 C           3.8232   -3.0364   -5.7766 C.3     1  LIG111     -0.0610
      5 H           4.2321   -4.0366   -6.0010 H       1  LIG111      0.0253
      6 H           2.7876   -3.0049   -6.1500 H       1  LIG111      0.0253
      7 C           3.8558   -2.7999   -4.2443 C.3     1  LIG111     -0.0159
      8 H           4.9112   -2.8633   -3.9308 H       1  LIG111      0.0350
      9 C           3.3506   -1.3668   -3.9177 C.3     1  LIG111     -0.0391
     10 H           2.3106   -1.2608   -4.2698 H       1  LIG111      0.0294
     11 C           4.2125   -0.3319   -4.7014 C.3     1  LIG111     -0.0870
     12 H           5.2587   -0.3869   -4.3605 H       1  LIG111      0.0062
     13 H           3.8426    0.6805   -4.4620 H       1  LIG111      0.0062
     14 N           4.1767   -0.5720   -6.1726 N.4     1  LIG111      0.3780
     15 H           3.1420   -0.4902   -6.5030 H       1  LIG111     -0.0822
     16 C           4.9544    0.4632   -6.9120 C.3     1  LIG111     -0.1032
     17 H           5.8343    0.7882   -6.3331 H       1  LIG111      0.0023
     18 H           4.3412    1.3561   -7.1193 H       1  LIG111      0.0023
     19 H           5.3140    0.0799   -7.8815 H       1  LIG111      0.0023
     20 C           3.3341   -1.1013   -2.3823 C.3     1  LIG111      0.0466
     21 H           4.2884   -0.6499   -2.0667 H       1  LIG111      0.0380
     22 H           3.2270   -2.0528   -1.8380 H       1  LIG111      0.0380
     23 C           2.2122   -0.1891   -1.9647 C.2     1  LIG111      0.3073
     24 O           1.0439   -0.4863   -2.1572 O.2     1  LIG111     -0.2508
     25 O           2.5982    0.9466   -1.3669 O.3     1  LIG111     -0.4649
     26 C           1.5054    1.8023   -0.9769 C.3     1  LIG111      0.0896
     27 H           0.8992    2.0903   -1.8533 H       1  LIG111      0.0694
     28 H           1.8812    2.7153   -0.4835 H       1  LIG111      0.0694
     29 C           0.6167    1.0150    0.0149 C.3     1  LIG111     -0.0306
     30 H           1.1951    0.7253    0.9066 H       1  LIG111      0.0262
     31 H           0.2298    0.1050   -0.4698 H       1  LIG111      0.0262
     32 H          -0.2356    1.6371    0.3295 H       1  LIG111      0.0262
     33 C           3.0473   -3.8812   -3.5001 C.ar    1  LIG111     -0.0440
     34 C           1.7000   -3.6784   -3.1738 C.ar    1  LIG111     -0.0569
     35 H           1.1947   -2.7584   -3.4442 H       1  LIG111      0.0621
     36 C           0.9762   -4.6600   -2.4903 C.ar    1  LIG111     -0.0431
     37 H          -0.0674   -4.4949   -2.2419 H       1  LIG111      0.0632
     38 C           1.5928   -5.8581   -2.1236 C.ar    1  LIG111      0.0410
     39 C           2.9343   -6.0716   -2.4466 C.ar    1  LIG111     -0.0431
     40 H           3.4153   -7.0021   -2.1625 H       1  LIG111      0.0632
     41 C           3.6543   -5.0898   -3.1333 C.ar    1  LIG111     -0.0569
     42 H           4.6945   -5.2824   -3.3760 H       1  LIG111      0.0621
     43 CL          0.6878   -7.0866   -1.2635 Cl      1  LIG111     -0.0835
@<TRIPOS>BOND
     1    19    16    1
     2     2     1    1
     3    18    16    1
     4    16    17    1
     5    16    14    1
     6     1     3    1
     7     1    14    1
     8     1     4    1
     9    15    14    1
    10    14    11    1
    11     6     4    1
    12     5     4    1
    13     4     7    1
    14    11    13    1
    15    11    12    1
    16    11     9    1
    17    10     9    1
    18     7     8    1
    19     7     9    1
    20     7    33    1
    21     9    20    1
    22    33    34   ar
    23    33    41   ar
    24    35    34    1
    25    42    41    1
    26    34    36   ar
    27    41    39   ar
    28    36    37    1
    29    36    38   ar
    30    39    40    1
    31    39    38   ar
    32    20    21    1
    33    20    23    1
    34    20    22    1
    35    24    23    2
    36    38    43    1
    37    23    25    1
    38    27    26    1
    39    25    26    1
    40    26    28    1
    41    26    29    1
    42    31    29    1
    43    29    32    1
    44    29    30    1
