@<TRIPOS>MOLECULE
2c
 56 58 0 0 0
SMALL
GASTEIGER

@<TRIPOS>ATOM
      1 C           4.6091   -1.5850   -6.5938 C.3     1  LIG111     -0.0904
      2 H           4.4824   -1.8191   -7.6661 H       1  LIG111      0.0059
      3 H           5.6942   -1.5595   -6.3925 H       1  LIG111      0.0059
      4 C           3.9788   -2.7428   -5.7721 C.3     1  LIG111     -0.0610
      5 H           4.4856   -3.6949   -6.0065 H       1  LIG111      0.0253
      6 H           2.9191   -2.8478   -6.0529 H       1  LIG111      0.0253
      7 C           4.1157   -2.4468   -4.2565 C.3     1  LIG111     -0.0159
      8 H           5.1958   -2.3695   -4.0483 H       1  LIG111      0.0350
      9 C           3.4637   -1.0773   -3.9207 C.3     1  LIG111     -0.0391
     10 H           2.3949   -1.1075   -4.1932 H       1  LIG111      0.0294
     11 C           4.1130    0.0314   -4.8032 C.3     1  LIG111     -0.0870
     12 H           5.1785    0.1391   -4.5492 H       1  LIG111      0.0062
     13 H           3.6242    0.9933   -4.5681 H       1  LIG111      0.0062
     14 N           3.9932   -0.2692   -6.2593 N.4     1  LIG111      0.3780
     15 H           2.9337   -0.3277   -6.5063 H       1  LIG111     -0.0822
     16 C           4.5742    0.8244   -7.0900 C.3     1  LIG111     -0.1032
     17 H           5.6615    0.9170   -6.9304 H       1  LIG111      0.0023
     18 H           4.1224    1.8001   -6.8447 H       1  LIG111      0.0023
     19 H           4.4078    0.6388   -8.1637 H       1  LIG111      0.0023
     20 C           3.5281   -0.7709   -2.3922 C.3     1  LIG111      0.0466
     21 H           4.4260   -0.1649   -2.1860 H       1  LIG111      0.0380
     22 H           3.6212   -1.7032   -1.8146 H       1  LIG111      0.0380
     23 C           2.3404   -0.0034   -1.8730 C.2     1  LIG111      0.3073
     24 O           1.2070   -0.4508   -1.9535 O.2     1  LIG111     -0.2508
     25 O           2.6239    1.1833   -1.3215 O.3     1  LIG111     -0.4646
     26 C           1.4685    1.8947   -0.8339 C.3     1  LIG111      0.0928
     27 H           1.2721    1.6450    0.2228 H       1  LIG111      0.0697
     28 H           0.5819    1.6367   -1.4373 H       1  LIG111      0.0697
     29 C           1.7673    3.4104   -0.9498 C.3     1  LIG111     -0.0146
     30 H           0.8248    3.9465   -1.1474 H       1  LIG111      0.0301
     31 H           2.4390    3.5723   -1.8093 H       1  LIG111      0.0301
     32 C           2.4347    3.9751    0.3321 C.3     1  LIG111     -0.0246
     33 H           3.0903    4.8206    0.0666 H       1  LIG111      0.0314
     34 H           3.0664    3.2018    0.7976 H       1  LIG111      0.0314
     35 C           1.3660    4.4672    1.3183 C.ar    1  LIG111     -0.0472
     36 C           0.4115    3.5719    1.8139 C.ar    1  LIG111     -0.0586
     37 H           0.4238    2.5335    1.4981 H       1  LIG111      0.0620
     38 C          -0.5628    4.0049    2.7180 C.ar    1  LIG111     -0.0615
     39 H          -1.2996    3.3043    3.0995 H       1  LIG111      0.0618
     40 C          -0.5888    5.3397    3.1311 C.ar    1  LIG111     -0.0617
     41 H          -1.3442    5.6767    3.8344 H       1  LIG111      0.0618
     42 C           0.3596    6.2393    2.6367 C.ar    1  LIG111     -0.0615
     43 H           0.3396    7.2772    2.9554 H       1  LIG111      0.0618
     44 C           1.3333    5.8040    1.7328 C.ar    1  LIG111     -0.0586
     45 H           2.0650    6.5121    1.3572 H       1  LIG111      0.0620
     46 C           3.5225   -3.5829   -3.4012 C.ar    1  LIG111     -0.0440
     47 C           2.1976   -3.5287   -2.9495 C.ar    1  LIG111     -0.0569
     48 H           1.5605   -2.6873   -3.1963 H       1  LIG111      0.0621
     49 C           1.6686   -4.5603   -2.1681 C.ar    1  LIG111     -0.0431
     50 H           0.6404   -4.5118   -1.8239 H       1  LIG111      0.0632
     51 C           2.4614   -5.6579   -1.8263 C.ar    1  LIG111      0.0410
     52 C           3.7835   -5.7210   -2.2709 C.ar    1  LIG111     -0.0431
     53 H           4.4017   -6.5722   -2.0041 H       1  LIG111      0.0632
     54 C           4.3081   -4.6911   -3.0567 C.ar    1  LIG111     -0.0569
     55 H           5.3374   -4.7659   -3.3931 H       1  LIG111      0.0621
     56 CL          1.8004   -6.9492   -0.8444 Cl      1  LIG111     -0.0835
@<TRIPOS>BOND
     1    19    16    1
     2     2     1    1
     3    16    17    1
     4    16    18    1
     5    16    14    1
     6     1     3    1
     7     1    14    1
     8     1     4    1
     9    15    14    1
    10    14    11    1
    11     6     4    1
    12     5     4    1
    13     4     7    1
    14    11    13    1
    15    11    12    1
    16    11     9    1
    17     7     8    1
    18     7     9    1
    19     7    46    1
    20    10     9    1
    21     9    20    1
    22    46    54   ar
    23    46    47   ar
    24    55    54    1
    25    48    47    1
    26    54    52   ar
    27    47    49   ar
    28    20    21    1
    29    20    23    1
    30    20    22    1
    31    52    53    1
    32    52    51   ar
    33    49    51   ar
    34    49    50    1
    35    24    23    2
    36    23    25    1
    37    51    56    1
    38    31    29    1
    39    28    26    1
    40    25    26    1
    41    30    29    1
    42    29    26    1
    43    29    32    1
    44    26    27    1
    45    33    32    1
    46    32    34    1
    47    32    35    1
    48    35    44   ar
    49    35    36   ar
    50    45    44    1
    51    37    36    1
    52    44    42   ar
    53    36    38   ar
    54    42    43    1
    55    42    40   ar
    56    38    39    1
    57    38    40   ar
    58    40    41    1
