@<TRIPOS>MOLECULE
2i
 52 56 0 0 0
SMALL
GASTEIGER

@<TRIPOS>ATOM
      1 C           4.1877   -1.7612   -6.8800 C.3     1  LIG111     -0.0904
      2 H           3.9168   -1.9354   -7.9367 H       1  LIG111      0.0059
      3 H           5.2815   -1.8856   -6.8004 H       1  LIG111      0.0059
      4 C           3.4975   -2.8554   -6.0203 C.3     1  LIG111     -0.0610
      5 H           3.8412   -3.8565   -6.3328 H       1  LIG111      0.0253
      6 H           2.4099   -2.8066   -6.1842 H       1  LIG111      0.0253
      7 C           3.8396   -2.6368   -4.5240 C.3     1  LIG111     -0.0159
      8 H           4.9363   -2.7156   -4.4464 H       1  LIG111      0.0350
      9 C           3.4183   -1.2078   -4.0836 C.3     1  LIG111     -0.0407
     10 H           2.3284   -1.0954   -4.2163 H       1  LIG111      0.0293
     11 C           4.1059   -0.1599   -5.0080 C.3     1  LIG111     -0.0871
     12 H           5.1969   -0.1979   -4.8586 H       1  LIG111      0.0062
     13 H           3.7710    0.8464   -4.7003 H       1  LIG111      0.0062
     14 N           3.7939   -0.3898   -6.4486 N.4     1  LIG111      0.3780
     15 H           2.7156   -0.3013   -6.5756 H       1  LIG111     -0.0822
     16 C           4.4235    0.6486   -7.3138 C.3     1  LIG111     -0.1032
     17 H           5.5242    0.5877   -7.2787 H       1  LIG111      0.0023
     18 H           4.1337    1.6623   -6.9924 H       1  LIG111      0.0023
     19 H           4.1220    0.5317   -8.3681 H       1  LIG111      0.0023
     20 C           3.7205   -0.9639   -2.5745 C.3     1  LIG111      0.0282
     21 H           4.7100   -0.4903   -2.4661 H       1  LIG111      0.0363
     22 H           3.7452   -1.9177   -2.0248 H       1  LIG111      0.0363
     23 C           2.7139   -0.0577   -1.9220 C.ar    1  LIG111      0.2279
     24 O           1.4052   -0.3521   -1.8654 O.2     1  LIG111     -0.3377
     25 N           0.7153    0.6941   -1.1829 N.ar    1  LIG111     -0.0561
     26 C           1.6089    1.5492   -0.8707 C.ar    1  LIG111      0.2022
     27 N           2.8543    1.0486   -1.3520 N.ar    1  LIG111     -0.1913
     28 C           1.3956    2.8478   -0.1276 C.ar    1  LIG111      0.0261
     29 C           2.2440    3.9372   -0.3843 C.ar    1  LIG111     -0.0473
     30 H           3.0406    3.8391   -1.1144 H       1  LIG111      0.0626
     31 C           2.0834    5.1566    0.2868 C.ar    1  LIG111     -0.0155
     32 H           2.7333    6.0052    0.1021 H       1  LIG111      0.0655
     33 C           1.0441    5.2370    1.2115 C.ar    1  LIG111      0.1663
     34 C           0.2108    4.1730    1.4618 C.ar    1  LIG111      0.1669
     35 C           0.3568    2.9505    0.8078 C.ar    1  LIG111     -0.0053
     36 H          -0.3106    2.1230    1.0210 H       1  LIG111      0.0662
     37 O          -0.7546    4.4636    2.4018 O.3     1  LIG111     -0.4526
     38 C          -0.1868    5.7142    2.9080 C.3     1  LIG111      0.2332
     39 H          -0.9799    6.4123    3.2179 H       1  LIG111      0.1166
     40 H           0.4066    5.4597    3.8031 H       1  LIG111      0.1166
     41 O           0.7260    6.3512    1.9579 O.3     1  LIG111     -0.4526
     42 C           3.2015   -3.7109   -3.6220 C.ar    1  LIG111     -0.0440
     43 C           1.8095   -3.8292   -3.5172 C.ar    1  LIG111     -0.0569
     44 H           1.1524   -3.1636   -4.0651 H       1  LIG111      0.0621
     45 C           1.2375   -4.8078   -2.6990 C.ar    1  LIG111     -0.0431
     46 H           0.1581   -4.8959   -2.6266 H       1  LIG111      0.0632
     47 C           2.0528   -5.6764   -1.9701 C.ar    1  LIG111      0.0410
     48 C           3.4414   -5.5615   -2.0624 C.ar    1  LIG111     -0.0431
     49 H           4.0762   -6.2339   -1.4943 H       1  LIG111      0.0632
     50 C           4.0110   -4.5838   -2.8830 C.ar    1  LIG111     -0.0569
     51 H           5.0932   -4.5132   -2.9340 H       1  LIG111      0.0621
     52 CL          1.3367   -6.9030   -0.9449 Cl      1  LIG111     -0.0835
@<TRIPOS>BOND
     1    19    16    1
     2     2     1    1
     3    16    17    1
     4    16    18    1
     5    16    14    1
     6     1     3    1
     7     1    14    1
     8     1     4    1
     9    15    14    1
    10    14    11    1
    11     5     4    1
    12     6     4    1
    13     4     7    1
    14    11    12    1
    15    11    13    1
    16    11     9    1
    17     7     8    1
    18     7     9    1
    19     7    42    1
    20    10     9    1
    21     9    20    1
    22    44    43    1
    23    42    43   ar
    24    42    50   ar
    25    43    45   ar
    26    51    50    1
    27    50    48   ar
    28    45    46    1
    29    45    47   ar
    30    20    21    1
    31    20    22    1
    32    20    23    1
    33    48    47   ar
    34    48    49    1
    35    47    52    1
    36    23    24   ar
    37    23    27   ar
    38    24    25   ar
    39    27    26   ar
    40    25    26   ar
    41    30    29    1
    42    26    28    1
    43    29    28   ar
    44    29    31   ar
    45    28    35   ar
    46    32    31    1
    47    31    33   ar
    48    35    36    1
    49    35    34   ar
    50    33    34   ar
    51    33    41    1
    52    34    37    1
    53    41    38    1
    54    37    38    1
    55    38    39    1
    56    38    40    1
