@<TRIPOS>MOLECULE
3a
 39 40 0 0 0
SMALL
GASTEIGER

@<TRIPOS>ATOM
      1 C           4.3643   -1.9345   -6.9357 C.3     1  LIG111     -0.0904
      2 H           4.0818   -2.1977   -7.9707 H       1  LIG111      0.0059
      3 H           5.4489   -2.1149   -6.8382 H       1  LIG111      0.0059
      4 C           3.6150   -2.8972   -5.9739 C.3     1  LIG111     -0.0610
      5 H           3.9069   -3.9415   -6.1792 H       1  LIG111      0.0253
      6 H           2.5316   -2.8103   -6.1513 H       1  LIG111      0.0253
      7 C           3.9539   -2.5486   -4.5010 C.3     1  LIG111     -0.0164
      8 H           5.0426   -2.6766   -4.3913 H       1  LIG111      0.0350
      9 C           3.6154   -1.0572   -4.2242 C.3     1  LIG111     -0.0487
     10 H           2.5392   -0.9028   -4.4111 H       1  LIG111      0.0289
     11 C           4.3831   -0.1572   -5.2359 C.3     1  LIG111     -0.0875
     12 H           5.4679   -0.2707   -5.0853 H       1  LIG111      0.0062
     13 H           4.1302    0.8965   -5.0235 H       1  LIG111      0.0062
     14 N           4.0527   -0.5054   -6.6467 N.4     1  LIG111      0.3780
     15 H           2.9819   -0.3624   -6.7847 H       1  LIG111     -0.0822
     16 C           4.7427    0.4034   -7.6063 C.3     1  LIG111     -0.1032
     17 H           5.8368    0.2829   -7.5506 H       1  LIG111      0.0023
     18 H           4.5107    1.4609   -7.3964 H       1  LIG111      0.0023
     19 H           4.4348    0.1993   -8.6454 H       1  LIG111      0.0023
     20 C           3.8550   -0.6370   -2.7418 C.3     1  LIG111     -0.0411
     21 H           4.0733    0.4431   -2.6973 H       1  LIG111      0.0273
     22 H           4.7472   -1.1654   -2.3661 H       1  LIG111      0.0273
     23 C           2.6804   -0.9223   -1.7674 C.3     1  LIG111      0.0494
     24 H           3.0263   -1.0845   -0.7371 H       1  LIG111      0.0379
     25 H           2.0964   -1.7982   -2.0843 H       1  LIG111      0.0379
     26 C           1.7735    0.2758   -1.7421 C.2     1  LIG111      0.3560
     27 O           0.5734    0.1243   -2.0916 O.co2   1  LIG111     -0.2464
     28 O           2.2690    1.3743   -1.3750 O.co2   1  LIG111     -0.2464
     29 C           3.2293   -3.5007   -3.5282 C.ar    1  LIG111     -0.0441
     30 C           1.8292   -3.5237   -3.4722 C.ar    1  LIG111     -0.0569
     31 H           1.2398   -2.8641   -4.1008 H       1  LIG111      0.0621
     32 C           1.1625   -4.3971   -2.6081 C.ar    1  LIG111     -0.0431
     33 H           0.0777   -4.4137   -2.5802 H       1  LIG111      0.0632
     34 C           1.8906   -5.2523   -1.7785 C.ar    1  LIG111      0.0410
     35 C           3.2861   -5.2320   -1.8202 C.ar    1  LIG111     -0.0431
     36 H           3.8528   -5.8964   -1.1759 H       1  LIG111      0.0632
     37 C           3.9499   -4.3602   -2.6886 C.ar    1  LIG111     -0.0569
     38 H           5.0336   -4.3660   -2.6976 H       1  LIG111      0.0621
     39 CL          1.0582   -6.3446   -0.6909 Cl      1  LIG111     -0.0835
@<TRIPOS>BOND
     1    19    16    1
     2     2     1    1
     3    16    17    1
     4    16    18    1
     5    16    14    1
     6     1     3    1
     7     1    14    1
     8     1     4    1
     9    15    14    1
    10    14    11    1
    11     5     4    1
    12     6     4    1
    13     4     7    1
    14    11    12    1
    15    11    13    1
    16    11     9    1
    17     7     8    1
    18     7     9    1
    19     7    29    1
    20    10     9    1
    21     9    20    1
    22    31    30    1
    23    29    30   ar
    24    29    37   ar
    25    30    32   ar
    26    20    21    1
    27    20    22    1
    28    20    23    1
    29    38    37    1
    30    37    35   ar
    31    32    33    1
    32    32    34   ar
    33    27    26   ar
    34    25    23    1
    35    35    34   ar
    36    35    36    1
    37    34    39    1
    38    23    26    1
    39    23    24    1
    40    26    28   ar
