@<TRIPOS>MOLECULE
3f
 40 41 0 0 0
SMALL
GASTEIGER

@<TRIPOS>ATOM
      1 C           4.5245   -1.8832   -6.5394 C.3     1  LIG111     -0.0904
      2 H           4.4415   -2.1553   -7.6298 H       1  LIG111      0.0059
      3 H           5.6127   -1.7446   -6.2803 H       1  LIG111      0.0059
      4 C           3.9112   -2.9719   -5.6727 C.3     1  LIG111     -0.0610
      5 H           4.5076   -3.9112   -5.8317 H       1  LIG111      0.0253
      6 H           2.8590   -3.1878   -5.9977 H       1  LIG111      0.0253
      7 C           3.9397   -2.5947   -4.1944 C.3     1  LIG111     -0.0164
      8 H           5.0175   -2.4995   -3.8722 H       1  LIG111      0.0350
      9 C           3.2610   -1.2364   -3.9810 C.3     1  LIG111     -0.0492
     10 H           2.1730   -1.3535   -4.2620 H       1  LIG111      0.0288
     11 C           3.8927   -0.1774   -4.8886 C.3     1  LIG111     -0.0875
     12 H           4.9791   -0.0362   -4.6194 H       1  LIG111      0.0062
     13 H           3.3537    0.8045   -4.7661 H       1  LIG111      0.0062
     14 N           3.8376   -0.5629   -6.3381 N.4     1  LIG111      0.3780
     15 H           2.8490   -0.6808   -6.5963 H       1  LIG111     -0.0822
     16 C           4.4333    0.4886   -7.1957 C.3     1  LIG111     -0.1032
     17 H           3.8659    1.4480   -7.0567 H       1  LIG111      0.0023
     18 H           4.3759    0.1692   -8.2709 H       1  LIG111      0.0023
     19 H           5.5075    0.6460   -6.9097 H       1  LIG111      0.0023
     20 C           3.2939   -0.7700   -2.5307 C.3     1  LIG111     -0.0516
     21 H           4.3715   -0.7442   -2.2069 H       1  LIG111      0.0267
     22 H           2.7819   -1.5575   -1.9112 H       1  LIG111      0.0267
     23 C           2.6530    0.5602   -2.1984 C.3     1  LIG111     -0.0557
     24 H           2.7524    1.2090   -3.1138 H       1  LIG111      0.0263
     25 H           3.2254    1.0779   -1.3837 H       1  LIG111      0.0263
     26 C           1.1945    0.4824   -1.8299 C.3     1  LIG111     -0.0653
     27 H           1.0526   -0.1014   -0.8875 H       1  LIG111      0.0230
     28 H           0.6215   -0.0238   -2.6457 H       1  LIG111      0.0230
     29 H           0.7546    1.4992   -1.6851 H       1  LIG111      0.0230
     30 C           3.2894   -3.6726   -3.3858 C.ar    1  LIG111     -0.0441
     31 C           4.0308   -4.7440   -2.8738 C.ar    1  LIG111     -0.0569
     32 H           5.1104   -4.8188   -3.0724 H       1  LIG111      0.0621
     33 C           3.4135   -5.7313   -2.1104 C.ar    1  LIG111     -0.0431
     34 H           4.0065   -6.5703   -1.7121 H       1  LIG111      0.0632
     35 C           2.0402   -5.6544   -1.8507 C.ar    1  LIG111      0.0410
     36 C           1.2908   -4.5877   -2.3600 C.ar    1  LIG111     -0.0431
     37 H           0.2092   -4.5231   -2.1585 H       1  LIG111      0.0632
     38 C           1.9159   -3.6049   -3.1240 C.ar    1  LIG111     -0.0569
     39 H           1.3168   -2.7713   -3.5230 H       1  LIG111      0.0621
     40 CL          1.2868   -6.8512   -0.9216 Cl      1  LIG111     -0.0835
@<TRIPOS>BOND
     1    18    16    1
     2     2     1    1
     3    16    17    1
     4    16    19    1
     5    16    14    1
     6    15    14    1
     7     1    14    1
     8     1     3    1
     9     1     4    1
    10    14    11    1
    11     6     4    1
    12     5     4    1
    13     4     7    1
    14    11    13    1
    15    11    12    1
    16    11     9    1
    17    10     9    1
    18     7     9    1
    19     7     8    1
    20     7    30    1
    21     9    20    1
    22    39    38    1
    23    30    38   ar
    24    30    31   ar
    25    38    36   ar
    26    24    23    1
    27    32    31    1
    28    31    33   ar
    29    28    26    1
    30    20    21    1
    31    20    23    1
    32    20    22    1
    33    36    37    1
    34    36    35   ar
    35    23    26    1
    36    23    25    1
    37    33    35   ar
    38    33    34    1
    39    35    40    1
    40    26    29    1
    41    26    27    1
