@<TRIPOS>MOLECULE
C06
 17 17 0 0 0
SMALL
GASTEIGER

@<TRIPOS>ATOM
      1 H           0.8649  -14.0700   72.5206 H       1  LIG111      0.2921
      2 H           3.1055  -13.6862   71.7386 H       1  LIG111      0.0654
      3 H           4.8699  -12.0319   71.5857 H       1  LIG111      0.0626
      4 H           2.8713   -9.5798   74.5253 H       1  LIG111      0.0626
      5 H           1.1297  -11.3010   74.7170 H       1  LIG111      0.0654
      6 O           0.8636  -13.4257   73.2161 O.3     1  LIG111     -0.5068
      7 C           1.9391  -12.5499   73.1765 C.ar    1  LIG111      0.1169
      8 C           3.0292  -12.7787   72.3276 C.ar    1  LIG111     -0.0195
      9 C           4.0347  -11.8198   72.2388 C.ar    1  LIG111     -0.0473
     10 C           3.9572  -10.6219   72.9594 C.ar    1  LIG111      0.0293
     11 C           2.9267  -10.4481   73.8881 C.ar    1  LIG111     -0.0473
     12 C           1.9277  -11.4211   73.9959 C.ar    1  LIG111     -0.0195
     13 C           5.0102   -9.5851   72.6449 C.2     1  LIG111      0.2734
     14 C           5.2708   -8.3190   73.3342 C.2     1  LIG111      0.4260
     15 O           6.2741   -7.6419   72.9775 O.co2   1  LIG111     -0.2369
     16 O           4.5296   -7.9134   74.2518 O.co2   1  LIG111     -0.2369
     17 O           5.7180   -9.8142   71.6866 O.2     1  LIG111     -0.2795
@<TRIPOS>BOND
     1     3     9    1
     2    17    13    2
     3     2     8    1
     4     9     8   ar
     5     9    10   ar
     6     8     7   ar
     7     1     6    1
     8    13    10    1
     9    13    14    1
    10    10    11   ar
    11    15    14   ar
    12     7     6    1
    13     7    12   ar
    14    14    16   ar
    15    11    12   ar
    16    11     4    1
    17    12     5    1
