@<TRIPOS>MOLECULE
C08
 20 21 0 0 0
SMALL
GASTEIGER

@<TRIPOS>ATOM
      1 C           2.4892  -11.1320   73.0917 C.ar    1  LIG111      0.0472
      2 N           3.3740  -11.7949   72.3363 N.ar    1  LIG111     -0.3599
      3 C           4.5126  -11.1667   72.3105 C.ar    1  LIG111      0.0138
      4 C           4.5178  -10.1016   73.1284 C.ar    1  LIG111      0.0540
      5 C           3.0757   -9.9696   73.5692 C.ar    1  LIG111      0.0107
      6 C           5.7702   -9.3683   73.4682 C.2     1  LIG111      0.2754
      7 C           6.0987   -8.0000   73.9193 C.2     1  LIG111      0.4261
      8 O           5.9079   -7.6154   75.1105 O.co2   1  LIG111     -0.2369
      9 O           6.7877  -10.0444   73.4158 O.2     1  LIG111     -0.2795
     10 O           6.7179   -7.2087   73.1486 O.co2   1  LIG111     -0.2369
     11 C           1.1716  -11.5012   73.3501 C.ar    1  LIG111     -0.0378
     12 H           3.1772  -12.6795   71.8418 H       1  LIG111      0.1654
     13 H           5.3303  -11.5035   71.7062 H       1  LIG111      0.0814
     14 C           2.2897   -9.0277   74.2274 C.ar    1  LIG111     -0.0519
     15 C           0.9102   -9.2733   74.2550 C.ar    1  LIG111     -0.0611
     16 C           0.3677  -10.5279   73.9469 C.ar    1  LIG111     -0.0598
     17 H           0.7939  -12.4837   73.0878 H       1  LIG111      0.0638
     18 H           2.7157   -8.1394   74.6646 H       1  LIG111      0.0624
     19 H           0.2325   -8.4715   74.4917 H       1  LIG111      0.0618
     20 H          -0.6763  -10.7407   74.1553 H       1  LIG111      0.0618
@<TRIPOS>BOND
     1    13     3    1
     2    12     2    1
     3     3     2   ar
     4     3     4   ar
     5     2     1   ar
     6    17    11    1
     7     1    11   ar
     8     1     5   ar
     9     4     6    1
    10     4     5   ar
    11    10     7   ar
    12    11    16   ar
    13     9     6    2
    14     6     7    1
    15     5    14   ar
    16     7     8   ar
    17    16    20    1
    18    16    15   ar
    19    14    15   ar
    20    14    18    1
    21    15    19    1
