@<TRIPOS>MOLECULE
C10
 20 20 0 0 0
SMALL
GASTEIGER

@<TRIPOS>ATOM
      1 C           2.3119  -11.5085   73.0947 C.ar    1  LIG111      0.1201
      2 C           2.2589  -10.2527   73.7161 C.ar    1  LIG111     -0.0193
      3 C           3.4113   -9.4621   73.8022 C.ar    1  LIG111     -0.0472
      4 C           4.6120   -9.9254   73.2579 C.ar    1  LIG111      0.0293
      5 C           4.5654  -11.0143   72.3871 C.ar    1  LIG111     -0.0472
      6 C           3.4680  -11.8757   72.4055 C.ar    1  LIG111     -0.0193
      7 C           5.9611   -9.3349   73.6084 C.2     1  LIG111      0.2734
      8 C           6.2020   -7.9321   73.9367 C.2     1  LIG111      0.4260
      9 O           5.9292   -7.4819   75.0865 O.co2   1  LIG111     -0.2369
     10 O           6.9527  -10.0475   73.6788 O.2     1  LIG111     -0.2795
     11 O           6.7975   -7.1821   73.1098 O.co2   1  LIG111     -0.2369
     12 O           1.2439  -12.4108   73.1318 O.3     1  LIG111     -0.4951
     13 C           0.3441  -12.4129   74.2501 C.3     1  LIG111      0.0788
     14 H           1.3350   -9.8739   74.1366 H       1  LIG111      0.0654
     15 H           3.3712   -8.4997   74.2968 H       1  LIG111      0.0626
     16 H           5.3753  -11.1850   71.6962 H       1  LIG111      0.0626
     17 H           3.5066  -12.8277   71.8846 H       1  LIG111      0.0654
     18 H           0.9058  -12.4558   75.1954 H       1  LIG111      0.0660
     19 H          -0.2829  -13.3130   74.1693 H       1  LIG111      0.0660
     20 H          -0.3168  -11.5339   74.2398 H       1  LIG111      0.0660
@<TRIPOS>BOND
     1    16     5    1
     2    17     6    1
     3     5     6   ar
     4     5     4   ar
     5     6     1   ar
     6     1    12    1
     7     1     2   ar
     8    11     8   ar
     9    12    13    1
    10     4     7    1
    11     4     3   ar
    12     7    10    2
    13     7     8    1
    14     2     3   ar
    15     2    14    1
    16     3    15    1
    17     8     9   ar
    18    19    13    1
    19    20    13    1
    20    13    18    1
