@<TRIPOS>MOLECULE
C11
 18 18 0 0 0
SMALL
GASTEIGER

@<TRIPOS>ATOM
      1 C           1.9109  -10.9139   74.1369 C.ar    1  LIG111     -0.0617
      2 C           2.1389   -9.5786   74.4751 C.ar    1  LIG111     -0.0614
      3 C           3.3497   -8.9632   74.1498 C.ar    1  LIG111     -0.0556
      4 C           4.3801   -9.6966   73.5567 C.ar    1  LIG111     -0.0083
      5 C           4.0994  -10.9968   73.1208 C.ar    1  LIG111     -0.0556
      6 C           2.8808  -11.6066   73.4128 C.ar    1  LIG111     -0.0614
      7 C           5.7873   -9.1003   73.3914 C.3     1  LIG111      0.1810
      8 C           6.2105   -8.2002   74.5370 C.2     1  LIG111      0.3884
      9 O           6.6431   -8.7461   75.5999 O.co2   1  LIG111     -0.2431
     10 H           0.9867  -11.4007   74.4254 H       1  LIG111      0.0618
     11 O           6.1803   -6.9277   74.4840 O.co2   1  LIG111     -0.2431
     12 H           1.3665   -9.0249   74.9822 H       1  LIG111      0.0618
     13 H           3.4874   -7.9115   74.3449 H       1  LIG111      0.0621
     14 H           4.8283  -11.5464   72.5421 H       1  LIG111      0.0621
     15 H           2.6799  -12.6171   73.0746 H       1  LIG111      0.0618
     16 O           6.0143   -8.4947   72.1020 O.3     1  LIG111     -0.3761
     17 H           6.4626   -9.9596   73.4802 H       1  LIG111      0.0763
     18 H           5.6930   -9.0409   71.3886 H       1  LIG111      0.2110
@<TRIPOS>BOND
     1    18    16    1
     2    16     7    1
     3    14     5    1
     4    15     6    1
     5     5     6   ar
     6     5     4   ar
     7     7    17    1
     8     7     4    1
     9     7     8    1
    10     6     1   ar
    11     4     3   ar
    12     1    10    1
    13     1     2   ar
    14     3    13    1
    15     3     2   ar
    16     2    12    1
    17    11     8   ar
    18     8     9   ar
