@<TRIPOS>MOLECULE
C15
 22 22 0 0 0
SMALL
GASTEIGER

@<TRIPOS>ATOM
      1 C           1.9337  -10.9834   73.3620 C.ar    1  LIG111      0.1201
      2 C           3.0480  -11.5543   72.7477 C.ar    1  LIG111     -0.0196
      3 C           4.2587  -10.8585   72.7266 C.ar    1  LIG111     -0.0521
      4 C           4.3882   -9.6025   73.3329 C.ar    1  LIG111     -0.0080
      5 C           3.2673   -9.0490   73.9588 C.ar    1  LIG111     -0.0521
      6 C           2.0555   -9.7472   73.9976 C.ar    1  LIG111     -0.0196
      7 C           5.7435   -8.8673   73.2917 C.3     1  LIG111      0.1810
      8 C           6.1011   -8.0212   74.4861 C.2     1  LIG111      0.3884
      9 O           6.4189   -8.6119   75.5608 O.co2   1  LIG111     -0.2431
     10 O           0.7054  -11.6412   73.3232 O.3     1  LIG111     -0.4951
     11 O           6.1521   -6.7580   74.4223 O.co2   1  LIG111     -0.2431
     12 H           2.9693  -12.5308   72.2819 H       1  LIG111      0.0654
     13 H           5.0933  -11.3089   72.2130 H       1  LIG111      0.0622
     14 H           3.3277   -8.0673   74.4027 H       1  LIG111      0.0622
     15 H           1.2011   -9.3317   74.5140 H       1  LIG111      0.0654
     16 H           5.7873   -8.2624   72.3729 H       1  LIG111      0.0763
     17 O           6.7852   -9.8459   73.2376 O.3     1  LIG111     -0.3761
     18 H           6.7449  -10.3697   74.0292 H       1  LIG111      0.2110
     19 C           0.3859  -12.3385   74.5343 C.3     1  LIG111      0.0788
     20 H           1.1356  -13.1137   74.7495 H       1  LIG111      0.0660
     21 H          -0.5953  -12.8181   74.4120 H       1  LIG111      0.0660
     22 H           0.3342  -11.6356   75.3763 H       1  LIG111      0.0660
@<TRIPOS>BOND
     1    13     3    1
     2    12     2    1
     3    16     7    1
     4     3     2   ar
     5     3     4   ar
     6     2     1   ar
     7    17     7    1
     8    17    18    1
     9     7     4    1
    10     7     8    1
    11    10     1    1
    12    10    19    1
    13     4     5   ar
    14     1     6   ar
    15     5     6   ar
    16     5    14    1
    17     6    15    1
    18    21    19    1
    19    11     8   ar
    20     8     9   ar
    21    19    20    1
    22    19    22    1
