@<TRIPOS>MOLECULE
C16
 13 13 0 0 0
SMALL
GASTEIGER

@<TRIPOS>ATOM
      1 C           2.5597  -11.3483   72.8341 C.ar    1  LIG111     -0.0236
      2 C           2.2189  -10.2148   73.4514 C.ar    1  LIG111     -0.0540
      3 C           3.3825   -9.3722   73.7559 C.ar    1  LIG111     -0.0436
      4 C           4.5331   -9.9141   73.3515 C.ar    1  LIG111      0.0662
      5 S           4.3068  -11.4813   72.5225 S.2     1  LIG111     -0.0932
      6 H           1.8475  -12.1187   72.5398 H       1  LIG111      0.0693
      7 C           5.8790   -9.3521   73.5736 C.2     1  LIG111      0.2799
      8 C           6.1828   -7.9589   73.9228 C.2     1  LIG111      0.4265
      9 O           6.7958   -7.2062   73.1101 O.co2   1  LIG111     -0.2369
     10 O           6.8570  -10.0829   73.5271 O.2     1  LIG111     -0.2790
     11 O           5.9315   -7.5143   75.0808 O.co2   1  LIG111     -0.2369
     12 H           1.1970   -9.9380   73.7111 H       1  LIG111      0.0623
     13 H           3.2982   -8.4230   74.2764 H       1  LIG111      0.0630
@<TRIPOS>BOND
     1     5     1   ar
     2     5     4   ar
     3     6     1    1
     4     1     2   ar
     5     9     8   ar
     6     4     7    1
     7     4     3   ar
     8     2    12    1
     9     2     3   ar
    10    10     7    2
    11     7     8    1
    12     3    13    1
    13     8    11   ar
