@<TRIPOS>MOLECULE
C18
 48 50 0 0 0
SMALL
GASTEIGER

@<TRIPOS>ATOM
      1 C           2.1446  -11.8979   73.7008 C.ar    1  LIG111      0.1210
      2 C           3.0975  -12.2124   72.7253 C.ar    1  LIG111     -0.0192
      3 C           4.1272  -11.3146   72.4349 C.ar    1  LIG111     -0.0472
      4 C           4.1894  -10.0609   73.0523 C.ar    1  LIG111      0.0293
      5 C           3.1932   -9.7201   73.9787 C.ar    1  LIG111     -0.0472
      6 C           2.1954  -10.6394   74.3147 C.ar    1  LIG111     -0.0192
      7 C           5.3139   -9.1208   72.6679 C.2     1  LIG111      0.2734
      8 C           5.4842   -7.7787   73.2477 C.2     1  LIG111      0.4260
      9 O           5.3283   -7.6004   74.4837 O.co2   1  LIG111     -0.2369
     10 O           6.1198   -9.4714   71.8204 O.2     1  LIG111     -0.2795
     11 O           5.7827   -6.8429   72.4634 O.co2   1  LIG111     -0.2369
     12 C           0.4887  -13.5971   73.0675 C.3     1  LIG111      0.1150
     13 H           3.0705  -13.1439   72.1732 H       1  LIG111      0.0654
     14 H           4.8757  -11.6021   71.7039 H       1  LIG111      0.0626
     15 H           3.1741   -8.7393   74.4397 H       1  LIG111      0.0626
     16 H           1.4480  -10.3783   75.0594 H       1  LIG111      0.0654
     17 C          -0.7215  -14.2831   73.7318 C.ar    1  LIG111     -0.0040
     18 C          -1.8264  -13.4603   73.9920 C.ar    1  LIG111     -0.0550
     19 C          -3.0090  -13.9808   74.5225 C.ar    1  LIG111     -0.0614
     20 C          -3.0938  -15.3418   74.8135 C.ar    1  LIG111     -0.0614
     21 C          -1.9869  -16.1646   74.5927 C.ar    1  LIG111     -0.0550
     22 C          -0.7888  -15.6416   74.0868 C.ar    1  LIG111     -0.0040
     23 C           0.3761  -16.6377   73.9893 C.3     1  LIG111      0.1150
     24 O           0.2007  -17.6364   72.9757 O.3     1  LIG111     -0.4874
     25 O           1.1451  -12.8093   74.0805 O.3     1  LIG111     -0.4874
     26 C           0.8702  -17.4155   71.7745 C.ar    1  LIG111      0.1210
     27 C           1.9558  -18.2256   71.4328 C.ar    1  LIG111     -0.0192
     28 C           2.5488  -18.1052   70.1747 C.ar    1  LIG111     -0.0472
     29 C           2.0889  -17.1401   69.2750 C.ar    1  LIG111      0.0293
     30 C           1.1143  -16.2237   69.6863 C.ar    1  LIG111     -0.0472
     31 C           0.4643  -16.3934   70.9118 C.ar    1  LIG111     -0.0192
     32 C           2.6115  -17.0904   67.8565 C.2     1  LIG111      0.2734
     33 O           2.8877  -16.0166   67.3454 O.2     1  LIG111     -0.2795
     34 O           3.2042  -18.2259   65.6442 O.co2   1  LIG111     -0.2369
     35 O           2.4576  -19.6509   67.7132 O.co2   1  LIG111     -0.2369
     36 C           2.7636  -18.3296   67.0728 C.2     1  LIG111      0.4260
     37 H           1.1583  -14.3225   72.5941 H       1  LIG111      0.0748
     38 H           0.1167  -12.9342   72.2684 H       1  LIG111      0.0748
     39 H          -1.7710  -12.3956   73.7824 H       1  LIG111      0.0621
     40 H          -3.8580  -13.3307   74.7053 H       1  LIG111      0.0618
     41 H          -4.0152  -15.7620   75.2080 H       1  LIG111      0.0618
     42 H          -2.0653  -17.2226   74.8218 H       1  LIG111      0.0621
     43 H           0.4020  -17.2168   74.9246 H       1  LIG111      0.0748
     44 H           1.3428  -16.1438   73.8991 H       1  LIG111      0.0748
     45 H           2.3411  -18.9510   72.1426 H       1  LIG111      0.0654
     46 H           3.3649  -18.7662   69.9049 H       1  LIG111      0.0626
     47 H           0.8463  -15.3903   69.0478 H       1  LIG111      0.0626
     48 H          -0.3538  -15.7404   71.1908 H       1  LIG111      0.0654
@<TRIPOS>BOND
     1    34    36   ar
     2    36    35   ar
     3    36    32    1
     4    33    32    2
     5    32    29    1
     6    47    30    1
     7    29    30   ar
     8    29    28   ar
     9    30    31   ar
    10    46    28    1
    11    28    27   ar
    12    31    48    1
    13    31    26   ar
    14    27    26   ar
    15    27    45    1
    16    14     3    1
    17    26    24    1
    18    10     7    2
    19    13     2    1
    20    38    12    1
    21     3     2   ar
    22     3     4   ar
    23    11     8   ar
    24    37    12    1
    25     7     4    1
    26     7     8    1
    27     2     1   ar
    28    24    23    1
    29     4     5   ar
    30    12    17    1
    31    12    25    1
    32     8     9   ar
    33     1    25    1
    34     1     6   ar
    35    17    18   ar
    36    17    22   ar
    37    39    18    1
    38    44    23    1
    39     5     6   ar
    40     5    15    1
    41    23    22    1
    42    23    43    1
    43    18    19   ar
    44    22    21   ar
    45     6    16    1
    46    19    40    1
    47    19    20   ar
    48    21    20   ar
    49    21    42    1
    50    20    41    1
