@<TRIPOS>MOLECULE
C19
 48 50 0 0 0
SMALL
GASTEIGER

@<TRIPOS>ATOM
      1 C           2.2680  -11.9180   73.5589 C.ar    1  LIG111      0.1210
      2 C           3.3142  -12.1820   72.6694 C.ar    1  LIG111     -0.0192
      3 C           4.2881  -11.2102   72.4375 C.ar    1  LIG111     -0.0472
      4 C           4.2649   -9.9867   73.1139 C.ar    1  LIG111      0.0293
      5 C           3.2071   -9.7231   73.9922 C.ar    1  LIG111     -0.0472
      6 C           2.2177  -10.6867   74.2149 C.ar    1  LIG111     -0.0192
      7 C           5.3988   -9.0210   72.8310 C.2     1  LIG111      0.2734
      8 C           5.3584   -7.5894   73.1507 C.2     1  LIG111      0.4260
      9 O           4.7210   -7.1513   74.1383 O.co2   1  LIG111     -0.2369
     10 O           6.4071   -9.4373   72.2872 O.2     1  LIG111     -0.2795
     11 O           5.9843   -6.8198   72.3836 O.co2   1  LIG111     -0.2369
     12 C           0.6667  -13.5523   72.7158 C.3     1  LIG111      0.1146
     13 H           3.3978  -13.1290   72.1496 H       1  LIG111      0.0654
     14 H           5.0618  -11.4148   71.7085 H       1  LIG111      0.0626
     15 H           3.1184   -8.7831   74.5179 H       1  LIG111      0.0626
     16 H           1.4059  -10.4761   74.9049 H       1  LIG111      0.0654
     17 C          -0.0929  -15.7294   73.7859 C.ar    1  LIG111     -0.0490
     18 C          -0.3970  -14.4195   73.3958 C.ar    1  LIG111     -0.0100
     19 C          -1.6718  -13.9071   73.6446 C.ar    1  LIG111     -0.0553
     20 C          -2.6385  -14.7081   74.2597 C.ar    1  LIG111     -0.0610
     21 C          -2.3256  -16.0127   74.6506 C.ar    1  LIG111     -0.0553
     22 C          -1.0306  -16.5131   74.4713 C.ar    1  LIG111     -0.0100
     23 C          -0.6003  -17.8922   74.9949 C.3     1  LIG111      0.1146
     24 O          -1.0534  -18.2339   76.3195 O.3     1  LIG111     -0.4874
     25 O           1.2795  -12.8660   73.8199 O.3     1  LIG111     -0.4874
     26 C          -2.3778  -18.6342   76.5074 C.ar    1  LIG111      0.1210
     27 C          -2.9038  -19.7254   75.8094 C.ar    1  LIG111     -0.0192
     28 C          -4.2325  -20.1107   76.0020 C.ar    1  LIG111     -0.0472
     29 C          -5.0261  -19.4681   76.9585 C.ar    1  LIG111      0.0293
     30 C          -4.4980  -18.3715   77.6493 C.ar    1  LIG111     -0.0472
     31 C          -3.1850  -17.9516   77.4203 C.ar    1  LIG111     -0.0192
     32 C          -6.4382  -19.9292   77.2556 C.2     1  LIG111      0.2734
     33 C          -6.8966  -21.3110   77.0155 C.2     1  LIG111      0.4260
     34 O          -6.0560  -22.2350   76.8550 O.co2   1  LIG111     -0.2369
     35 O          -8.1362  -21.5360   76.9938 O.co2   1  LIG111     -0.2369
     36 O          -7.2366  -19.1312   77.7192 O.2     1  LIG111     -0.2795
     37 H           0.2030  -12.8372   72.0165 H       1  LIG111      0.0748
     38 H           1.3601  -14.1947   72.1487 H       1  LIG111      0.0748
     39 H           0.8830  -16.1418   73.5527 H       1  LIG111      0.0625
     40 H          -1.9162  -12.8863   73.3634 H       1  LIG111      0.0621
     41 H          -3.6355  -14.3137   74.4340 H       1  LIG111      0.0618
     42 H          -3.1027  -16.6265   75.0871 H       1  LIG111      0.0621
     43 H           0.4954  -17.8834   75.0995 H       1  LIG111      0.0748
     44 H          -0.8584  -18.6491   74.2409 H       1  LIG111      0.0748
     45 H          -2.2889  -20.2888   75.1195 H       1  LIG111      0.0654
     46 H          -4.6368  -20.9100   75.3927 H       1  LIG111      0.0626
     47 H          -5.1041  -17.8391   78.3741 H       1  LIG111      0.0626
     48 H          -2.7872  -17.0936   77.9520 H       1  LIG111      0.0654
@<TRIPOS>BOND
     1    14     3    1
     2    37    12    1
     3    38    12    1
     4    13     2    1
     5    10     7    2
     6    11     8   ar
     7     3     2   ar
     8     3     4   ar
     9     2     1   ar
    10    12    18    1
    11    12    25    1
    12     7     4    1
    13     7     8    1
    14     4     5   ar
    15     8     9   ar
    16    40    19    1
    17    18    19   ar
    18    18    17   ar
    19    39    17    1
    20     1    25    1
    21     1     6   ar
    22    19    20   ar
    23    17    22   ar
    24     5     6   ar
    25     5    15    1
    26     6    16    1
    27    44    23    1
    28    20    41    1
    29    20    21   ar
    30    22    21   ar
    31    22    23    1
    32    21    42    1
    33    23    43    1
    34    23    24    1
    35    45    27    1
    36    46    28    1
    37    27    28   ar
    38    27    26   ar
    39    28    29   ar
    40    24    26    1
    41    26    31   ar
    42    34    33   ar
    43    29    32    1
    44    29    30   ar
    45    35    33   ar
    46    33    32    1
    47    32    36    2
    48    31    30   ar
    49    31    48    1
    50    30    47    1
