@<TRIPOS>MOLECULE
C20
 48 50 0 0 0
SMALL
GASTEIGER

@<TRIPOS>ATOM
      1 C           1.9262  -11.5632   73.7043 C.ar    1  LIG111      0.1210
      2 C           2.9613  -12.0560   72.8979 C.ar    1  LIG111     -0.0192
      3 C           4.0940  -11.2856   72.6431 C.ar    1  LIG111     -0.0472
      4 C           4.2100   -9.9892   73.1496 C.ar    1  LIG111      0.0293
      5 C           3.2106   -9.5302   74.0177 C.ar    1  LIG111     -0.0472
      6 C           2.0972  -10.3198   74.3159 C.ar    1  LIG111     -0.0192
      7 C           5.3948   -9.1476   72.7198 C.2     1  LIG111      0.2734
      8 C           5.5421   -7.7428   73.1134 C.2     1  LIG111      0.4260
      9 O           5.4498   -7.4469   74.3288 O.co2   1  LIG111     -0.2369
     10 O           6.2682   -9.6229   72.0114 O.2     1  LIG111     -0.2795
     11 O           5.7687   -6.8807   72.2275 O.co2   1  LIG111     -0.2369
     12 C           0.5814  -13.6114   73.4366 C.3     1  LIG111      0.1146
     13 H           2.9297  -13.0299   72.4388 H       1  LIG111      0.0654
     14 H           4.8780  -11.7054   72.0316 H       1  LIG111      0.0626
     15 H           3.2783   -8.5517   74.4654 H       1  LIG111      0.0626
     16 H           1.3547   -9.9667   75.0222 H       1  LIG111      0.0654
     17 C          -1.8233  -13.5356   74.3087 C.ar    1  LIG111     -0.0550
     18 C          -0.8233  -14.1879   73.5796 C.ar    1  LIG111     -0.0104
     19 C          -1.1070  -15.4002   72.9475 C.ar    1  LIG111     -0.0550
     20 C          -2.4074  -15.9110   72.9476 C.ar    1  LIG111     -0.0550
     21 C          -3.4196  -15.2420   73.6427 C.ar    1  LIG111     -0.0104
     22 C          -3.1147  -14.0664   74.3384 C.ar    1  LIG111     -0.0550
     23 H          -3.8872  -13.5555   74.9047 H       1  LIG111      0.0621
     24 O          -5.0713  -17.0041   72.9595 O.3     1  LIG111     -0.4874
     25 O           0.7254  -12.2624   73.9093 O.3     1  LIG111     -0.4874
     26 C          -4.6774  -18.2415   73.4916 C.ar    1  LIG111      0.1210
     27 C          -5.1619  -19.4079   72.8908 C.ar    1  LIG111     -0.0192
     28 C          -4.8442  -20.6660   73.4100 C.ar    1  LIG111     -0.0472
     29 C          -4.0438  -20.7637   74.5511 C.ar    1  LIG111      0.0293
     30 C          -3.5112  -19.6051   75.1266 C.ar    1  LIG111     -0.0472
     31 C          -3.8224  -18.3466   74.5991 C.ar    1  LIG111     -0.0192
     32 C          -3.7708  -22.1209   75.1587 C.2     1  LIG111      0.2734
     33 C          -4.1032  -22.3674   76.5722 C.2     1  LIG111      0.4260
     34 O          -4.8014  -21.5092   77.1780 O.co2   1  LIG111     -0.2369
     35 O          -3.6974  -23.4276   77.1221 O.co2   1  LIG111     -0.2369
     36 O          -3.2903  -23.0071   74.4705 O.2     1  LIG111     -0.2795
     37 H           0.8026  -13.6682   72.3603 H       1  LIG111      0.0748
     38 H           1.2475  -14.2633   74.0133 H       1  LIG111      0.0748
     39 H          -1.6032  -12.6198   74.8469 H       1  LIG111      0.0621
     40 H          -5.4584  -15.0160   73.1115 H       1  LIG111      0.0748
     41 H          -0.3161  -15.9516   72.4456 H       1  LIG111      0.0621
     42 H          -2.6128  -16.8250   72.4015 H       1  LIG111      0.0621
     43 C          -4.8604  -15.7635   73.6555 C.3     1  LIG111      0.1146
     44 H          -5.2515  -15.8309   74.6836 H       1  LIG111      0.0748
     45 H          -5.7963  -19.3323   72.0130 H       1  LIG111      0.0654
     46 H          -5.2286  -21.5640   72.9345 H       1  LIG111      0.0626
     47 H          -2.8504  -19.6838   75.9857 H       1  LIG111      0.0626
     48 H          -3.3866  -17.4698   75.0669 H       1  LIG111      0.0654
@<TRIPOS>BOND
     1    10     7    2
     2    45    27    1
     3    14     3    1
     4    11     8   ar
     5    37    12    1
     6    42    20    1
     7    13     2    1
     8    41    19    1
     9     3     2   ar
    10     3     4   ar
    11     7     8    1
    12     7     4    1
    13    27    28   ar
    14    27    26   ar
    15     2     1   ar
    16    46    28    1
    17    19    20   ar
    18    19    18   ar
    19    20    21   ar
    20    24    26    1
    21    24    43    1
    22    40    43    1
    23     8     9   ar
    24     4     5   ar
    25    28    29   ar
    26    12    18    1
    27    12    25    1
    28    12    38    1
    29    26    31   ar
    30    18    17   ar
    31    21    43    1
    32    21    22   ar
    33    43    44    1
    34     1    25    1
    35     1     6   ar
    36     5     6   ar
    37     5    15    1
    38    17    22   ar
    39    17    39    1
    40     6    16    1
    41    22    23    1
    42    36    32    2
    43    29    30   ar
    44    29    32    1
    45    31    48    1
    46    31    30   ar
    47    30    47    1
    48    32    33    1
    49    33    35   ar
    50    33    34   ar
