@<TRIPOS>MOLECULE
C21
 66 69 0 0 0
SMALL
GASTEIGER

@<TRIPOS>ATOM
      1 C          -1.3107  -19.2986   69.9163 C.ar    1  LIG111      0.1210
      2 C          -0.5508  -18.5428   69.0197 C.ar    1  LIG111     -0.0192
      3 C           0.7578  -18.9247   68.7031 C.ar    1  LIG111     -0.0472
      4 C           1.3340  -20.0661   69.2814 C.ar    1  LIG111      0.0293
      5 C           0.5531  -20.8293   70.1598 C.ar    1  LIG111     -0.0472
      6 C          -0.7647  -20.4668   70.4446 C.ar    1  LIG111     -0.0192
      7 C           2.7562  -20.5256   69.0211 C.2     1  LIG111      0.2734
      8 C           3.8825  -19.6162   68.7485 C.2     1  LIG111      0.4260
      9 O           3.6803  -18.3834   68.5921 O.co2   1  LIG111     -0.2369
     10 O           3.0055  -21.7192   69.0596 O.2     1  LIG111     -0.2795
     11 O           5.0399  -20.1191   68.6828 O.co2   1  LIG111     -0.2369
     12 C          -2.8474  -17.5477   70.6195 C.3     1  LIG111      0.1147
     13 H          -0.9729  -17.6610   68.5501 H       1  LIG111      0.0654
     14 H           1.3083  -18.3255   67.9905 H       1  LIG111      0.0626
     15 H           0.9699  -21.7123   70.6305 H       1  LIG111      0.0626
     16 H          -1.3784  -21.0966   71.0789 H       1  LIG111      0.0654
     17 C          -0.9148  -15.9988   71.2329 C.ar    1  LIG111     -0.0489
     18 C          -1.8086  -17.0089   71.6090 C.ar    1  LIG111     -0.0097
     19 C          -1.7566  -17.5343   72.9045 C.ar    1  LIG111     -0.0489
     20 C          -0.9319  -16.9443   73.8667 C.ar    1  LIG111     -0.0097
     21 C          -0.1131  -15.8735   73.5043 C.ar    1  LIG111     -0.0489
     22 C          -0.0254  -15.4726   72.1719 C.ar    1  LIG111     -0.0097
     23 C           1.0771  -14.4843   71.8061 C.3     1  LIG111      0.1147
     24 O           1.1026  -13.4595   72.8167 O.3     1  LIG111     -0.4874
     25 O          -2.6016  -18.9254   70.3047 O.3     1  LIG111     -0.4874
     26 C           2.1410  -12.5241   72.8757 C.ar    1  LIG111      0.1210
     27 C           3.3055  -12.6695   72.1155 C.ar    1  LIG111     -0.0192
     28 C           4.2749  -11.6716   72.1459 C.ar    1  LIG111     -0.0472
     29 C           4.1764  -10.5810   73.0122 C.ar    1  LIG111      0.0293
     30 C           3.0246  -10.4489   73.7952 C.ar    1  LIG111     -0.0472
     31 C           2.0173  -11.4183   73.7226 C.ar    1  LIG111     -0.0192
     32 C           5.3648   -9.6419   73.0334 C.2     1  LIG111      0.2734
     33 C           5.3670   -8.2493   73.4868 C.2     1  LIG111      0.4260
     34 O           6.3223   -7.5061   73.1365 O.co2   1  LIG111     -0.2369
     35 O           4.4400   -7.8295   74.2074 O.co2   1  LIG111     -0.2369
     36 O           6.4289  -10.0748   72.6377 O.2     1  LIG111     -0.2795
     37 H          -2.8918  -16.9430   69.7035 H       1  LIG111      0.0748
     38 H          -3.8393  -17.5013   71.0931 H       1  LIG111      0.0748
     39 H          -0.9035  -15.6235   70.2165 H       1  LIG111      0.0625
     40 H          -2.3588  -18.4009   73.1463 H       1  LIG111      0.0625
     41 C          -0.8263  -17.4101   75.3179 C.3     1  LIG111      0.1147
     42 H           0.4733  -15.3657   74.2631 H       1  LIG111      0.0625
     43 H           0.9437  -14.0473   70.8046 H       1  LIG111      0.0748
     44 H           1.9788  -15.1151   71.8253 H       1  LIG111      0.0748
     45 H           3.4966  -13.5280   71.4844 H       1  LIG111      0.0654
     46 H           5.1094  -11.7596   71.4684 H       1  LIG111      0.0626
     47 H           2.8964   -9.6157   74.4743 H       1  LIG111      0.0626
     48 H           1.1280  -11.3155   74.3363 H       1  LIG111      0.0654
     49 O          -1.3305  -18.7195   75.6246 O.3     1  LIG111     -0.4874
     50 C          -2.7053  -18.9800   75.6668 C.ar    1  LIG111      0.1210
     51 C          -3.6614  -17.9652   75.5308 C.ar    1  LIG111     -0.0192
     52 C          -5.0230  -18.2743   75.5769 C.ar    1  LIG111     -0.0472
     53 C          -5.4529  -19.5951   75.7410 C.ar    1  LIG111      0.0293
     54 C          -4.4977  -20.6096   75.8603 C.ar    1  LIG111     -0.0472
     55 C          -3.1373  -20.2967   75.8470 C.ar    1  LIG111     -0.0192
     56 H          -1.1879  -16.6520   76.0283 H       1  LIG111      0.0748
     57 H           0.2592  -17.4718   75.4387 H       1  LIG111      0.0748
     58 H          -3.3801  -16.9294   75.3849 H       1  LIG111      0.0654
     59 H          -5.7486  -17.4725   75.4846 H       1  LIG111      0.0626
     60 C          -6.9369  -19.8928   75.7719 C.2     1  LIG111      0.2734
     61 H          -4.7947  -21.6475   75.9513 H       1  LIG111      0.0626
     62 H          -2.4125  -21.0907   75.9756 H       1  LIG111      0.0654
     63 C          -7.5011  -21.0619   76.4693 C.2     1  LIG111      0.4260
     64 O          -6.6798  -21.8003   77.4834 O.co2   1  LIG111     -0.2369
     65 O          -8.9082  -21.4660   76.1425 O.co2   1  LIG111     -0.2369
     66 O          -7.7060  -19.1365   75.2012 O.2     1  LIG111     -0.2795
@<TRIPOS>BOND
     1    14     3    1
     2    13     2    1
     3     9     8   ar
     4    11     8   ar
     5     3     2   ar
     6     3     4   ar
     7     8     7    1
     8     2     1   ar
     9     7    10    2
    10     7     4    1
    11     4     5   ar
    12    37    12    1
    13     1    25    1
    14     1     6   ar
    15     5     6   ar
    16     5    15    1
    17    39    17    1
    18    25    12    1
    19     6    16    1
    20    12    38    1
    21    12    18    1
    22    43    23    1
    23    17    18   ar
    24    17    22   ar
    25    46    28    1
    26    45    27    1
    27    18    19   ar
    28    23    44    1
    29    23    22    1
    30    23    24    1
    31    27    28   ar
    32    27    26   ar
    33    28    29   ar
    34    22    21   ar
    35    36    32    2
    36    24    26    1
    37    26    31   ar
    38    19    40    1
    39    19    20   ar
    40    29    32    1
    41    29    30   ar
    42    32    33    1
    43    34    33   ar
    44    33    35   ar
    45    21    20   ar
    46    21    42    1
    47    31    30   ar
    48    31    48    1
    49    30    47    1
    50    20    41    1
    51    66    60    2
    52    41    57    1
    53    41    49    1
    54    41    56    1
    55    58    51    1
    56    59    52    1
    57    51    52   ar
    58    51    50   ar
    59    52    53   ar
    60    49    50    1
    61    50    55   ar
    62    53    60    1
    63    53    54   ar
    64    60    63    1
    65    55    54   ar
    66    55    62    1
    67    54    61    1
    68    65    63   ar
    69    63    64   ar
