@<TRIPOS>MOLECULE
C22
 68 72 0 0 0
SMALL
GASTEIGER

@<TRIPOS>ATOM
      1 C          -4.8008  -16.8235   77.6461 C.ar    1  LIG111      0.0414
      2 C          -4.4347  -16.9984   78.9908 C.ar    1  LIG111      0.0033
      3 C          -5.3500  -17.5633   79.8912 C.ar    1  LIG111     -0.0161
      4 C          -6.6399  -17.8952   79.4599 C.ar    1  LIG111     -0.0539
      5 C          -7.0200  -17.6656   78.1356 C.ar    1  LIG111     -0.0594
      6 C          -6.1001  -17.1296   77.2331 C.ar    1  LIG111     -0.0399
      7 O          -2.6231  -18.1350   76.8975 O.2     1  LIG111     -0.2698
      8 C          -3.1754  -16.6066   79.4606 C.ar    1  LIG111     -0.0523
      9 C          -2.8018  -16.8437   80.7875 C.ar    1  LIG111     -0.0611
     10 C          -3.7057  -17.4346   81.6716 C.ar    1  LIG111     -0.0612
     11 C          -4.9791  -17.7890   81.2231 C.ar    1  LIG111     -0.0540
     12 C          -2.8719  -17.0551   76.3822 C.2     1  LIG111      0.2486
     13 C           0.2383  -13.4521   74.6232 C.3     1  LIG111      0.1147
     14 O          -2.4568  -18.8999   72.6546 O.3     1  LIG111     -0.4874
     15 C          -1.4213  -19.1233   71.7450 C.ar    1  LIG111      0.1210
     16 C          -1.0258  -18.1071   70.8706 C.ar    1  LIG111     -0.0192
     17 C          -1.4719  -15.2341   75.3022 C.ar    1  LIG111     -0.0429
     18 C          -1.9001  -16.5679   75.3263 C.ar    1  LIG111      0.0438
     19 C          -1.4003  -17.4665   74.3730 C.ar    1  LIG111      0.0017
     20 C          -0.2351  -17.1254   73.6835 C.ar    1  LIG111     -0.0543
     21 C           0.2171  -15.8059   73.6829 C.ar    1  LIG111     -0.0550
     22 C          -0.3649  -14.8602   74.5330 C.ar    1  LIG111     -0.0097
     23 C           0.0183  -18.3238   69.9654 C.ar    1  LIG111     -0.0472
     24 O           0.7088  -13.0509   73.3258 O.3     1  LIG111     -0.4874
     25 N          -3.9274  -16.3628   76.7181 N.am    1  LIG111     -0.2810
     26 C           1.8005  -12.1782   73.2576 C.ar    1  LIG111      0.1210
     27 C           2.8725  -12.5097   72.4296 C.ar    1  LIG111     -0.0192
     28 C           3.9769  -11.6635   72.3365 C.ar    1  LIG111     -0.0472
     29 C           4.0085  -10.4337   73.0058 C.ar    1  LIG111      0.0293
     30 C           2.9434  -10.1233   73.8637 C.ar    1  LIG111     -0.0472
     31 C           1.8471  -10.9881   73.9921 C.ar    1  LIG111     -0.0192
     32 C           5.1941   -9.5237   72.7267 C.2     1  LIG111      0.2734
     33 C           5.3415   -8.1192   73.1565 C.2     1  LIG111      0.4260
     34 O           4.6277   -7.6304   74.0635 O.co2   1  LIG111     -0.2369
     35 O           6.2189   -7.4220   72.5791 O.co2   1  LIG111     -0.2369
     36 O           6.1162   -9.9712   72.0661 O.2     1  LIG111     -0.2795
     37 C           0.6875  -19.5535   69.9315 C.ar    1  LIG111      0.0293
     38 C           0.2922  -20.5636   70.8181 C.ar    1  LIG111     -0.0472
     39 C          -0.7767  -20.3617   71.6956 C.ar    1  LIG111     -0.0192
     40 C           1.8081  -19.8260   68.9478 C.2     1  LIG111      0.2734
     41 O           2.1405  -20.9792   68.7260 O.2     1  LIG111     -0.2795
     42 C           2.5227  -18.7595   68.2234 C.2     1  LIG111      0.4260
     43 O           3.0427  -19.0743   66.8520 O.co2   1  LIG111     -0.2369
     44 O           2.7195  -17.4163   68.8633 O.co2   1  LIG111     -0.2369
     45 H          -7.3583  -18.3298   80.1479 H       1  LIG111      0.0624
     46 H          -8.0273  -17.9038   77.8074 H       1  LIG111      0.0618
     47 H          -6.3931  -16.9544   76.2030 H       1  LIG111      0.0636
     48 H          -2.4748  -16.1085   78.8030 H       1  LIG111      0.0624
     49 H          -1.8146  -16.5703   81.1387 H       1  LIG111      0.0618
     50 H          -3.4183  -17.6150   82.7035 H       1  LIG111      0.0618
     51 H          -5.6765  -18.2398   81.9234 H       1  LIG111      0.0624
     52 H          -0.4888  -12.7198   75.0053 H       1  LIG111      0.0748
     53 H           1.0795  -13.5296   75.3269 H       1  LIG111      0.0748
     54 H          -1.5327  -17.1479   70.9001 H       1  LIG111      0.0654
     55 H          -1.9841  -14.4821   75.8915 H       1  LIG111      0.0629
     56 H           0.3264  -17.8773   73.1421 H       1  LIG111      0.0622
     57 H           1.0207  -15.5365   73.0096 H       1  LIG111      0.0621
     58 H           0.2913  -17.5251   69.2841 H       1  LIG111      0.0626
     59 H          -4.1428  -15.4798   76.2296 H       1  LIG111      0.1552
     60 H           2.8466  -13.4291   71.8544 H       1  LIG111      0.0654
     61 H           4.8049  -11.9825   71.7187 H       1  LIG111      0.0626
     62 H           2.9400   -9.2120   74.4470 H       1  LIG111      0.0626
     63 H           1.0337  -10.7259   74.6618 H       1  LIG111      0.0654
     64 H           0.8129  -21.5160   70.8294 H       1  LIG111      0.0626
     65 H          -1.1088  -21.1703   72.3369 H       1  LIG111      0.0654
     66 C          -2.1002  -18.7960   74.0459 C.3     1  LIG111      0.1153
     67 H          -3.0667  -18.8466   74.5631 H       1  LIG111      0.0748
     68 H          -1.4962  -19.6581   74.3639 H       1  LIG111      0.0748
@<TRIPOS>BOND
     1    43    42   ar
     2    42    44   ar
     3    42    40    1
     4    41    40    2
     5    40    37    1
     6    58    23    1
     7    37    23   ar
     8    37    38   ar
     9    23    16   ar
    10    38    64    1
    11    38    39   ar
    12    16    54    1
    13    16    15   ar
    14    39    15   ar
    15    39    65    1
    16    61    28    1
    17    15    14    1
    18    60    27    1
    19    36    32    2
    20    28    27   ar
    21    28    29   ar
    22    27    26   ar
    23    35    33   ar
    24    14    66    1
    25    32    29    1
    26    32    33    1
    27    29    30   ar
    28    57    21    1
    29    56    20    1
    30    33    34   ar
    31    26    24    1
    32    26    31   ar
    33    24    13    1
    34    21    20   ar
    35    21    22   ar
    36    20    19   ar
    37    30    31   ar
    38    30    62    1
    39    31    63    1
    40    66    68    1
    41    66    19    1
    42    66    67    1
    43    19    18   ar
    44    22    13    1
    45    22    17   ar
    46    13    52    1
    47    13    53    1
    48    17    18   ar
    49    17    55    1
    50    18    12    1
    51    47     6    1
    52    59    25    1
    53    12    25   am
    54    12     7    2
    55    25     1    1
    56     6     1   ar
    57     6     5   ar
    58     1     2   ar
    59    46     5    1
    60     5     4   ar
    61    48     8    1
    62     2     8   ar
    63     2     3   ar
    64     4     3   ar
    65     4    45    1
    66     8     9   ar
    67     3    11   ar
    68     9    49    1
    69     9    10   ar
    70    11    10   ar
    71    11    51    1
    72    10    50    1
