@<TRIPOS>MOLECULE
C24
 74 78 0 0 0
SMALL
GASTEIGER
Energy = 0

@<TRIPOS>ATOM
      1 C          -3.7787  -16.8200   79.0233 C.ar    1  LIG11       0.1210
      2 C          -3.2864  -17.2531   80.2566 C.ar    1  LIG11      -0.0192
      3 C          -4.1363  -17.8889   81.1665 C.ar    1  LIG11      -0.0472
      4 C          -5.4943  -18.0593   80.8723 C.ar    1  LIG11       0.0293
      5 C          -6.0011  -17.5243   79.6824 C.ar    1  LIG11      -0.0472
      6 C          -5.1470  -16.9193   78.7570 C.ar    1  LIG11      -0.0192
      7 C          -6.3834  -18.8030   81.8475 C.2     1  LIG11       0.2734
      8 C          -7.6368  -19.4671   81.4411 C.2     1  LIG11       0.4260
      9 O          -7.8472  -19.7274   80.2264 O.co2   1  LIG11      -0.2369
     10 O          -6.0533  -18.8650   83.0208 O.2     1  LIG11      -0.2795
     11 O          -8.4672  -19.7769   82.3376 O.co2   1  LIG11      -0.2369
     12 C          -2.7846  -17.0189   76.8453 C.3     1  LIG11       0.1147
     13 H          -2.2438  -17.0958   80.5103 H       1  LIG11       0.0654
     14 H          -3.7307  -18.2523   82.1055 H       1  LIG11       0.0626
     15 H          -7.0622  -17.5593   79.4650 H       1  LIG11       0.0626
     16 H          -5.5534  -16.5191   77.8343 H       1  LIG11       0.0654
     17 C          -2.2373  -14.7940   75.7705 C.ar    1  LIG11      -0.0550
     18 C          -2.0027  -16.1696   75.8418 C.ar    1  LIG11      -0.0097
     19 C          -1.0564  -16.7423   74.9854 C.ar    1  LIG11      -0.0429
     20 C          -0.3451  -15.9463   74.0814 C.ar    1  LIG11       0.0438
     21 C          -0.4683  -14.5514   74.1236 C.ar    1  LIG11       0.0017
     22 C          -1.4426  -13.9869   74.9537 C.ar    1  LIG11      -0.0543
     23 H          -1.5857  -12.9107   74.9709 H       1  LIG11       0.0622
     24 O           1.2990  -12.9693   74.2697 O.3     1  LIG11      -0.4874
     25 O          -2.9128  -16.2781   78.0731 O.3     1  LIG11      -0.4874
     26 C           2.2295  -12.0363   73.8054 C.ar    1  LIG11       0.1210
     27 C           3.1514  -12.3668   72.8082 C.ar    1  LIG11      -0.0192
     28 C           4.1414  -11.4579   72.4411 C.ar    1  LIG11      -0.0472
     29 C           4.2023  -10.1863   73.0154 C.ar    1  LIG11       0.0293
     30 C           3.2270   -9.8323   73.9553 C.ar    1  LIG11      -0.0472
     31 C           2.2594  -10.7553   74.3596 C.ar    1  LIG11      -0.0192
     32 C           5.3044   -9.2478   72.5711 C.2     1  LIG11       0.2734
     33 C           5.6594   -8.0184   73.2950 C.2     1  LIG11       0.4260
     34 O           5.4268   -7.9164   74.5247 O.co2   1  LIG11      -0.2369
     35 O           6.2170   -7.0915   72.6563 O.co2   1  LIG11      -0.2369
     36 O           5.9430   -9.5071   71.5638 O.2     1  LIG11      -0.2795
     37 H          -2.2811  -17.9771   77.0431 H       1  LIG11       0.0748
     38 H          -3.7590  -17.2243   76.3786 H       1  LIG11       0.0748
     39 H          -3.0352  -14.3468   76.3552 H       1  LIG11       0.0621
     40 H          -0.1853  -12.8419   72.8144 H       1  LIG11       0.0748
     41 H          -0.8784  -17.8120   75.0189 H       1  LIG11       0.0629
     42 C           0.5357  -16.6597   73.0790 C.2     1  LIG11       0.2486
     43 C           0.4289  -13.6028   73.3169 C.3     1  LIG11       0.1153
     44 H           1.0002  -14.1312   72.5470 H       1  LIG11       0.0748
     45 H           3.1259  -13.3219   72.3040 H       1  LIG11       0.0654
     46 H           4.8588  -11.7593   71.6910 H       1  LIG11       0.0626
     47 H           3.1967   -8.8366   74.3734 H       1  LIG11       0.0626
     48 H           1.5273  -10.4774   75.1091 H       1  LIG11       0.0654
     49 O           1.3549  -17.4478   73.5164 O.2     1  LIG11      -0.2698
     50 N           0.3945  -16.4353   71.8018 N.am    1  LIG11      -0.2815
     51 C           1.1413  -17.0903   70.8839 C.ar    1  LIG11       0.0337
     52 C           1.2132  -18.4865   70.8944 C.ar    1  LIG11      -0.0398
     53 C           1.8991  -19.1575   69.8815 C.ar    1  LIG11      -0.0492
     54 C           2.4849  -18.4330   68.8392 C.ar    1  LIG11       0.0224
     55 C           2.5019  -17.0359   68.8806 C.ar    1  LIG11      -0.0492
     56 C           1.8294  -16.3664   69.9064 C.ar    1  LIG11      -0.0398
     57 C           3.7315  -20.5206   67.8594 C.ar    1  LIG11       0.0223
     58 C           3.5492  -21.5346   66.9173 C.ar    1  LIG11      -0.0509
     59 C           4.1835  -22.7660   67.0997 C.ar    1  LIG11      -0.0611
     60 C           5.1365  -22.9149   68.1115 C.ar    1  LIG11      -0.0617
     61 H          -0.3126  -15.7591   71.4735 H       1  LIG11       0.1551
     62 H           0.7229  -19.0613   71.6729 H       1  LIG11       0.0636
     63 H           1.9548  -20.2404   69.9034 H       1  LIG11       0.0625
     64 C           3.0784  -19.1720   67.6625 C.2     1  LIG11       0.1931
     65 C           5.3049  -21.9103   69.0658 C.ar    1  LIG11      -0.0611
     66 C           4.5311  -20.7533   68.9802 C.ar    1  LIG11      -0.0509
     67 H           3.0327  -16.4708   68.1211 H       1  LIG11       0.0625
     68 H           1.8369  -15.2824   69.9452 H       1  LIG11       0.0636
     69 H           2.9127  -21.3738   66.0523 H       1  LIG11       0.0625
     70 H           3.9263  -23.5966   66.4510 H       1  LIG11       0.0618
     71 H           5.7499  -23.8035   68.1566 H       1  LIG11       0.0618
     72 H           6.0308  -22.0216   69.8639 H       1  LIG11       0.0618
     73 H           4.5613  -20.0337   69.7845 H       1  LIG11       0.0625
     74 O           3.0261  -18.6765   66.5489 O.2     1  LIG11      -0.2867
@<TRIPOS>BOND
     1    69    58    1
     2    70    59    1
     3    74    64    2
     4    58    59   ar
     5    58    57   ar
     6    59    60   ar
     7    64    57    1
     8    64    54    1
     9    57    66   ar
    10    60    71    1
    11    60    65   ar
    12    67    55    1
    13    54    55   ar
    14    54    53   ar
    15    55    56   ar
    16    66    65   ar
    17    66    73    1
    18    65    72    1
    19    53    63    1
    20    53    52   ar
    21    56    68    1
    22    56    51   ar
    23    51    52   ar
    24    51    50    1
    25    52    62    1
    26    61    50    1
    27    36    32    2
    28    46    28    1
    29    50    42   am
    30    45    27    1
    31    28    27   ar
    32    28    29   ar
    33    44    43    1
    34    32    29    1
    35    32    33    1
    36    35    33   ar
    37    27    26   ar
    38    40    43    1
    39    29    30   ar
    40    42    49    2
    41    42    20    1
    42    33    34   ar
    43    43    21    1
    44    43    24    1
    45    26    24    1
    46    26    31   ar
    47    30    31   ar
    48    30    47    1
    49    20    21   ar
    50    20    19   ar
    51    21    22   ar
    52    31    48    1
    53    22    23    1
    54    22    17   ar
    55    19    41    1
    56    19    18   ar
    57    17    18   ar
    58    17    39    1
    59    18    12    1
    60    38    12    1
    61    12    37    1
    62    12    25    1
    63    16     6    1
    64    25     1    1
    65     6     1   ar
    66     6     5   ar
    67     1     2   ar
    68    15     5    1
    69     5     4   ar
    70     9     8   ar
    71     2    13    1
    72     2     3   ar
    73     4     3   ar
    74     4     7    1
    75     3    14    1
    76     8     7    1
    77     8    11   ar
    78     7    10    2
