@<TRIPOS>MOLECULE
C26
 25 27 0 0 0
SMALL
GASTEIGER

@<TRIPOS>ATOM
      1 C           5.6220   -8.9225   73.8569 C.2     1  LIG111      0.2402
      2 C           6.3888   -8.0966   72.9148 C.2     1  LIG111      0.2677
      3 C           5.6646   -8.8516   71.8991 C.2     1  LIG111      0.1792
      4 C           4.9443   -9.6135   72.7321 C.2     1  LIG111      0.0787
      5 O           5.6318   -9.0244   75.0757 O.2     1  LIG111     -0.2829
      6 O           7.2639   -7.2442   72.9836 O.2     1  LIG111     -0.2799
      7 O           5.7405   -8.8019   70.5619 O.2     1  LIG111     -0.5026
      8 C           3.9300  -10.7288   72.5951 C.ar    1  LIG111     -0.0027
      9 C           4.2197  -11.7477   71.6867 C.ar    1  LIG111     -0.0532
     10 C           3.3432  -12.8143   71.4838 C.ar    1  LIG111     -0.0606
     11 C           2.1566  -12.8690   72.2133 C.ar    1  LIG111     -0.0540
     12 C           1.8652  -11.8731   73.1513 C.ar    1  LIG111     -0.0173
     13 C           2.7302  -10.7788   73.3183 C.ar    1  LIG111     -0.0099
     14 C           0.6939  -11.9714   73.9102 C.ar    1  LIG111     -0.0540
     15 C           0.3295  -10.9373   74.7711 C.ar    1  LIG111     -0.0612
     16 C           1.1649   -9.8264   74.9031 C.ar    1  LIG111     -0.0611
     17 C           2.3604   -9.7456   74.1860 C.ar    1  LIG111     -0.0534
     18 H           5.1243   -9.3859   70.1230 H       1  LIG111      0.2923
     19 H           5.1359  -11.7102   71.1239 H       1  LIG111      0.0624
     20 H           3.5787  -13.5935   70.7669 H       1  LIG111      0.0618
     21 H           1.4659  -13.6892   72.0395 H       1  LIG111      0.0624
     22 H           0.0550  -12.8470   73.8348 H       1  LIG111      0.0624
     23 H          -0.5982  -10.9948   75.3298 H       1  LIG111      0.0618
     24 H           0.8794   -9.0235   75.5621 H       1  LIG111      0.0618
     25 H           2.9803   -8.8646   74.3062 H       1  LIG111      0.0624
@<TRIPOS>BOND
     1    18     7    1
     2     7     3    1
     3    20    10    1
     4    19     9    1
     5    10     9   ar
     6    10    11   ar
     7     9     8   ar
     8     3     4    2
     9     3     2    1
    10    21    11    1
    11    11    12   ar
    12     8     4    1
    13     8    13   ar
    14     4     1    1
    15     2     6    2
    16     2     1    1
    17    12    13   ar
    18    12    14   ar
    19    13    17   ar
    20    22    14    1
    21     1     5    2
    22    14    15   ar
    23    17    25    1
    24    17    16   ar
    25    15    16   ar
    26    15    23    1
    27    16    24    1
