@<TRIPOS>MOLECULE
C27
 21 22 0 0 0
SMALL
GASTEIGER
Energy = 0

@<TRIPOS>ATOM
      1 C           5.8278   -8.7314   74.0801 C.2     1  LIG11       0.2402
      2 C           6.6296   -8.0604   73.0508 C.2     1  LIG11       0.2677
      3 C           5.8548   -8.8760   72.1266 C.2     1  LIG11       0.1792
      4 C           5.0975   -9.4968   73.0402 C.2     1  LIG11       0.0781
      5 O           5.8451   -8.7090   75.3020 O.2     1  LIG11      -0.2829
      6 O           7.5538   -7.2611   73.0178 O.2     1  LIG11      -0.2799
      7 O           5.9288   -8.9736   70.7953 O.2     1  LIG11      -0.5026
      8 C           4.0061  -10.5420   73.0844 C.ar    1  LIG11      -0.0103
      9 C           4.0000  -11.6234   72.1990 C.ar    1  LIG11      -0.0516
     10 C           2.9320  -12.5235   72.1900 C.ar    1  LIG11      -0.0309
     11 C           1.8857  -12.4077   73.1142 C.ar    1  LIG11       0.1262
     12 C           1.9502  -11.3738   74.0605 C.ar    1  LIG11      -0.0309
     13 C           2.9866  -10.4367   74.0331 C.ar    1  LIG11      -0.0516
     14 N           0.8377  -13.2741   73.0950 N.pl3   1  LIG11       0.0564
     15 O           0.0294  -13.2192   73.9974 O.2     1  LIG11      -0.1261
     16 O           0.7640  -14.0639   72.1771 O.2     1  LIG11      -0.1261
     17 H           5.2772   -9.5579   70.4193 H       1  LIG11       0.2923
     18 H           4.8239  -11.7731   71.5167 H       1  LIG11       0.0624
     19 H           2.9336  -13.3199   71.4499 H       1  LIG11       0.0640
     20 H           1.1882  -11.2836   74.8290 H       1  LIG11       0.0640
     21 H           2.9949   -9.6209   74.7467 H       1  LIG11       0.0624
@<TRIPOS>BOND
     1    17     7    1
     2     7     3    1
     3    19    10    1
     4    18     9    1
     5     3     4    2
     6     3     2    1
     7    16    14    2
     8    10     9   ar
     9    10    11   ar
    10     9     8   ar
    11     6     2    2
    12     4     8    1
    13     4     1    1
    14     2     1    1
    15     8    13   ar
    16    14    11    1
    17    14    15    2
    18    11    12   ar
    19    13    12   ar
    20    13    21    1
    21    12    20    1
    22     1     5    2
