@<TRIPOS>MOLECULE
C29
 27 28 0 0 0
SMALL
GASTEIGER

@<TRIPOS>ATOM
      1 C           5.8112   -8.7270   74.0619 C.2     1  LIG111      0.2402
      2 C           6.6151   -8.0359   73.0466 C.2     1  LIG111      0.2677
      3 C           5.8478   -8.8381   72.1052 C.2     1  LIG111      0.1792
      4 C           5.0914   -9.4777   73.0057 C.2     1  LIG111      0.0781
      5 O           5.8229   -8.7215   75.2840 O.2     1  LIG111     -0.2829
      6 O           7.5358   -7.2320   73.0305 O.2     1  LIG111     -0.2799
      7 O           5.9235   -8.9141   70.7721 O.2     1  LIG111     -0.5026
      8 C           4.0101  -10.5332   73.0137 C.ar    1  LIG111     -0.0103
      9 C           4.0767  -11.6251   72.1439 C.ar    1  LIG111     -0.0520
     10 C           3.0523  -12.5735   72.1192 C.ar    1  LIG111     -0.0401
     11 C           1.9437  -12.4468   72.9609 C.ar    1  LIG111      0.0292
     12 C           1.9038  -11.3750   73.8641 C.ar    1  LIG111     -0.0401
     13 C           2.9336  -10.4307   73.8994 C.ar    1  LIG111     -0.0520
     14 N           0.9285  -13.3478   72.9002 N.pl3   1  LIG111     -0.3360
     15 C           0.2395  -13.7794   74.1168 C.3     1  LIG111      0.0004
     16 C           0.5215  -13.9242   71.6156 C.3     1  LIG111      0.0004
     17 H           5.2715   -9.4951   70.3895 H       1  LIG111      0.2923
     18 H           4.9232  -11.7472   71.4845 H       1  LIG111      0.0624
     19 H           3.1360  -13.4152   71.4383 H       1  LIG111      0.0636
     20 H           1.0630  -11.2613   74.5405 H       1  LIG111      0.0636
     21 H           2.8921   -9.6102   74.6084 H       1  LIG111      0.0624
     22 H          -0.6575  -13.1610   74.2706 H       1  LIG111      0.0428
     23 H           0.8918  -13.6950   74.9982 H       1  LIG111      0.0428
     24 H          -0.0680  -14.8331   74.0327 H       1  LIG111      0.0428
     25 H           0.7171  -13.2337   70.7793 H       1  LIG111      0.0428
     26 H          -0.5569  -14.1446   71.6189 H       1  LIG111      0.0428
     27 H           1.0690  -14.8645   71.4458 H       1  LIG111      0.0428
@<TRIPOS>BOND
     1    17     7    1
     2     7     3    1
     3    25    16    1
     4    19    10    1
     5    27    16    1
     6    18     9    1
     7    16    26    1
     8    16    14    1
     9     3     4    2
    10     3     2    1
    11    10     9   ar
    12    10    11   ar
    13     9     8   ar
    14    14    11    1
    15    14    15    1
    16    11    12   ar
    17     4     8    1
    18     4     1    1
    19     8    13   ar
    20     6     2    2
    21     2     1    1
    22    12    13   ar
    23    12    20    1
    24    13    21    1
    25    24    15    1
    26     1     5    2
    27    15    22    1
    28    15    23    1
