@<TRIPOS>MOLECULE
C30
 23 24 0 0 0
SMALL
GASTEIGER

@<TRIPOS>ATOM
      1 C           5.8220   -8.7756   74.1285 C.2     1  LIG111      0.2402
      2 C           6.6796   -8.1959   73.0900 C.2     1  LIG111      0.2677
      3 C           5.8857   -9.0198   72.1895 C.2     1  LIG111      0.1792
      4 C           5.0755   -9.5557   73.1105 C.2     1  LIG111      0.0781
      5 O           5.8171   -8.6863   75.3476 O.2     1  LIG111     -0.2829
      6 O           7.6453   -7.4494   73.0329 O.2     1  LIG111     -0.2799
      7 O           5.9879   -9.1814   70.8667 O.2     1  LIG111     -0.5026
      8 C           3.9226  -10.5344   73.1697 C.ar    1  LIG111     -0.0102
      9 C           3.8252  -11.6173   72.2899 C.ar    1  LIG111     -0.0503
     10 C           2.6497  -12.3729   72.2285 C.ar    1  LIG111     -0.0194
     11 C           1.6094  -12.1167   73.1269 C.ar    1  LIG111      0.1201
     12 C           1.7802  -11.1483   74.1191 C.ar    1  LIG111     -0.0194
     13 C           2.9226  -10.3439   74.1283 C.ar    1  LIG111     -0.0503
     14 O           0.3937  -12.7970   73.0327 O.3     1  LIG111     -0.4951
     15 C           0.3935  -14.2016   73.3316 C.3     1  LIG111      0.0788
     16 H           5.3246   -9.7548   70.4921 H       1  LIG111      0.2923
     17 H           4.6560  -11.8766   71.6467 H       1  LIG111      0.0625
     18 H           2.5434  -13.1517   71.4808 H       1  LIG111      0.0654
     19 H           1.0119  -11.0227   74.8742 H       1  LIG111      0.0654
     20 H           3.0232   -9.5622   74.8729 H       1  LIG111      0.0625
     21 H           0.9941  -14.7705   72.6065 H       1  LIG111      0.0660
     22 H          -0.6442  -14.5625   73.2720 H       1  LIG111      0.0660
     23 H           0.7678  -14.3803   74.3518 H       1  LIG111      0.0660
@<TRIPOS>BOND
     1    16     7    1
     2     7     3    1
     3    18    10    1
     4    17     9    1
     5     3     2    1
     6     3     4    2
     7    10     9   ar
     8    10    11   ar
     9     9     8   ar
    10    21    15    1
    11    14    11    1
    12    14    15    1
    13     6     2    2
    14     2     1    1
    15     4     8    1
    16     4     1    1
    17    11    12   ar
    18     8    13   ar
    19    22    15    1
    20    15    23    1
    21    12    13   ar
    22    12    19    1
    23    13    20    1
    24     1     5    2
