@<TRIPOS>MOLECULE
C34
 23 24 0 0 0
SMALL
GASTEIGER

@<TRIPOS>ATOM
      1 C           5.5364   -8.7427   73.9089 C.2     1  LIG111      0.2536
      2 C           6.5903   -8.2121   73.0345 C.2     1  LIG111      0.2702
      3 C           5.9576   -9.0609   72.0365 C.2     1  LIG111      0.1931
      4 C           4.9917   -9.5741   72.8024 C.2     1  LIG111      0.1286
      5 O           5.3058   -8.6039   75.1007 O.2     1  LIG111     -0.2816
      6 O           7.5656   -7.4796   73.1252 O.2     1  LIG111     -0.2798
      7 O           6.2583   -9.2504   70.7492 O.2     1  LIG111     -0.5018
      8 N           4.0338  -10.4366   72.5997 N.pl3   1  LIG111     -0.3084
      9 C           2.4662   -9.5155   74.1564 C.ar    1  LIG111     -0.0384
     10 C           1.2498   -9.6485   74.8290 C.ar    1  LIG111     -0.0297
     11 C           0.5419  -10.8552   74.8097 C.ar    1  LIG111      0.1263
     12 C           1.1721  -11.9831   74.2646 C.ar    1  LIG111     -0.0297
     13 C           2.9934  -10.5989   73.4500 C.ar    1  LIG111      0.0316
     14 C           2.3780  -11.8486   73.5706 C.ar    1  LIG111     -0.0384
     15 N          -0.7287  -10.9196   75.2892 N.pl3   1  LIG111      0.0564
     16 O          -1.1796   -9.9432   75.8536 O.2     1  LIG111     -0.1261
     17 O          -1.3625  -11.9327   75.0898 O.2     1  LIG111     -0.1261
     18 H           5.5980   -9.7838   70.3117 H       1  LIG111      0.2924
     19 H           4.0322  -10.9765   71.7197 H       1  LIG111      0.1524
     20 H           2.9622   -8.5529   74.1662 H       1  LIG111      0.0637
     21 H           0.8603   -8.7848   75.3473 H       1  LIG111      0.0641
     22 H           0.7268  -12.9681   74.3652 H       1  LIG111      0.0641
     23 H           2.8360  -12.7114   73.1029 H       1  LIG111      0.0637
@<TRIPOS>BOND
     1    18     7    1
     2     7     3    1
     3    19     8    1
     4     3     4    2
     5     3     2    1
     6     8     4    1
     7     8    13    1
     8     4     1    1
     9     2     6    2
    10     2     1    1
    11    23    14    1
    12    13    14   ar
    13    13     9   ar
    14    14    12   ar
    15     1     5    2
    16     9    20    1
    17     9    10   ar
    18    12    22    1
    19    12    11   ar
    20    11    10   ar
    21    11    15    1
    22    10    21    1
    23    17    15    2
    24    15    16    2
