@<TRIPOS>MOLECULE
C36
 21 22 0 0 0
SMALL
GASTEIGER

@<TRIPOS>ATOM
      1 C           5.4816   -8.6417   73.8815 C.2     1  LIG111      0.2536
      2 C           6.4379   -7.8619   73.0907 C.2     1  LIG111      0.2702
      3 C           5.7989   -8.5191   71.9601 C.2     1  LIG111      0.1931
      4 C           4.9094   -9.2411   72.6507 C.2     1  LIG111      0.1286
      5 O           5.3167   -8.7596   75.0849 O.2     1  LIG111     -0.2816
      6 O           7.3466   -7.0743   73.3124 O.2     1  LIG111     -0.2798
      7 O           6.0438   -8.4249   70.6455 O.2     1  LIG111     -0.5018
      8 N           3.9825  -10.0950   72.3236 N.pl3   1  LIG111     -0.3084
      9 C           2.5275   -9.8630   74.2213 C.ar    1  LIG111     -0.0405
     10 C           1.4571  -10.3751   74.9595 C.ar    1  LIG111     -0.0600
     11 C           1.0108  -11.6781   74.7422 C.ar    1  LIG111     -0.0616
     12 C           1.6372  -12.4730   73.7826 C.ar    1  LIG111     -0.0600
     13 C           3.1077  -10.6327   73.2071 C.ar    1  LIG111      0.0315
     14 C           2.7138  -11.9657   73.0509 C.ar    1  LIG111     -0.0405
     15 H           0.1771  -12.0718   75.3102 H       1  LIG111      0.0618
     16 H           5.4534   -8.9838   70.1395 H       1  LIG111      0.2924
     17 H           3.8852  -10.3432   71.3273 H       1  LIG111      0.1524
     18 H           2.8726   -8.8587   74.4248 H       1  LIG111      0.0636
     19 H           0.9541   -9.7626   75.6925 H       1  LIG111      0.0618
     20 H           1.2709  -13.4771   73.6068 H       1  LIG111      0.0618
     21 H           3.2353  -12.6030   72.3466 H       1  LIG111      0.0636
@<TRIPOS>BOND
     1    16     7    1
     2     7     3    1
     3    17     8    1
     4     3     4    2
     5     3     2    1
     6     8     4    1
     7     8    13    1
     8    21    14    1
     9     4     1    1
    10    14    13   ar
    11    14    12   ar
    12     2     6    2
    13     2     1    1
    14    13     9   ar
    15    20    12    1
    16    12    11   ar
    17     1     5    2
    18     9    18    1
    19     9    10   ar
    20    11    10   ar
    21    11    15    1
    22    10    19    1
