@<TRIPOS>MOLECULE
C38
 21 22 0 0 0
SMALL
GASTEIGER
Energy = 0

@<TRIPOS>ATOM
      1 C           5.5138   -8.7556   73.9073 C.2     1  LIG11       0.2536
      2 C           6.5610   -8.1945   73.0426 C.2     1  LIG11       0.2702
      3 C           5.9463   -9.0376   72.0268 C.2     1  LIG11       0.1931
      4 C           4.9863   -9.5812   72.7865 C.2     1  LIG11       0.1286
      5 O           5.2757   -8.6398   75.0992 O.2     1  LIG11      -0.2816
      6 O           7.5263   -7.4492   73.1492 O.2     1  LIG11      -0.2798
      7 O           6.2506   -9.2056   70.7389 O.2     1  LIG11      -0.5018
      8 N           4.0485  -10.4608   72.5660 N.pl3   1  LIG11      -0.3084
      9 C           2.4682   -9.6179   74.1600 C.ar    1  LIG11      -0.0378
     10 C           1.2821   -9.8159   74.8739 C.ar    1  LIG11      -0.0247
     11 C           0.6444  -11.0573   74.8545 C.ar    1  LIG11       0.1235
     12 C           1.2641  -12.1461   74.2362 C.ar    1  LIG11      -0.0247
     13 C           3.0159  -10.6727   73.4213 C.ar    1  LIG11       0.0316
     14 C           2.4440  -11.9441   73.5085 C.ar    1  LIG11      -0.0378
     15 F          -0.5570  -11.1851   75.4142 F       1  LIG11      -0.2055
     16 H           5.5972   -9.7451   70.2965 H       1  LIG11       0.2924
     17 H           4.0596  -10.9864   71.6775 H       1  LIG11       0.1524
     18 H           2.9228   -8.6338   74.1685 H       1  LIG11       0.0637
     19 H           0.8439   -9.0017   75.4314 H       1  LIG11       0.0647
     20 H           0.8220  -13.1347   74.3145 H       1  LIG11       0.0647
     21 H           2.9118  -12.7750   72.9915 H       1  LIG11       0.0637
@<TRIPOS>BOND
     1    16     7    1
     2     7     3    1
     3    17     8    1
     4     3     4    2
     5     3     2    1
     6     8     4    1
     7     8    13    1
     8     4     1    1
     9    21    14    1
    10     2     6    2
    11     2     1    1
    12    13    14   ar
    13    13     9   ar
    14    14    12   ar
    15     1     5    2
    16     9    18    1
    17     9    10   ar
    18    12    20    1
    19    12    11   ar
    20    11    10   ar
    21    11    15    1
    22    10    19    1
