@<TRIPOS>MOLECULE
C39
 25 26 0 0 0
SMALL
GASTEIGER

@<TRIPOS>ATOM
      1 C           5.5302   -8.6873   73.8685 C.2     1  LIG111      0.2536
      2 C           6.5992   -8.1670   73.0049 C.2     1  LIG111      0.2702
      3 C           5.8768   -8.8773   71.9590 C.2     1  LIG111      0.1931
      4 C           4.8861   -9.3714   72.7122 C.2     1  LIG111      0.1286
      5 O           5.3351   -8.6275   75.0736 O.2     1  LIG111     -0.2816
      6 O           7.6317   -7.5205   73.1235 O.2     1  LIG111     -0.2798
      7 O           6.1339   -8.9899   70.6510 O.2     1  LIG111     -0.5018
      8 N           3.8469  -10.1260   72.4795 N.pl3   1  LIG111     -0.3084
      9 C           2.4189   -9.2323   74.1772 C.ar    1  LIG111     -0.0371
     10 C           1.2179   -9.3317   74.8834 C.ar    1  LIG111     -0.0182
     11 C           0.4638  -10.5052   74.8552 C.ar    1  LIG111      0.1202
     12 C           1.0042  -11.6414   74.2380 C.ar    1  LIG111     -0.0182
     13 C           2.8478  -10.3045   73.3839 C.ar    1  LIG111      0.0317
     14 C           2.1849  -11.5347   73.4852 C.ar    1  LIG111     -0.0371
     15 O          -0.8099  -10.5072   75.4392 O.3     1  LIG111     -0.4951
     16 H           5.4406   -9.4901   70.2233 H       1  LIG111      0.2924
     17 H           3.7424  -10.5435   71.5395 H       1  LIG111      0.1524
     18 H           2.9789   -8.3090   74.2375 H       1  LIG111      0.0637
     19 H           0.8589   -8.4843   75.4465 H       1  LIG111      0.0655
     20 H           0.5163  -12.6066   74.3347 H       1  LIG111      0.0655
     21 H           2.5836  -12.4051   72.9708 H       1  LIG111      0.0637
     22 C          -1.8916  -10.9834   74.6169 C.3     1  LIG111      0.0788
     23 H          -1.9348  -10.4226   73.6688 H       1  LIG111      0.0660
     24 H          -2.8272  -10.8150   75.1703 H       1  LIG111      0.0660
     25 H          -1.8067  -12.0602   74.4043 H       1  LIG111      0.0660
@<TRIPOS>BOND
     1    16     7    1
     2     7     3    1
     3    17     8    1
     4     3     4    2
     5     3     2    1
     6     8     4    1
     7     8    13    1
     8     4     1    1
     9    21    14    1
    10     2     6    2
    11     2     1    1
    12    13    14   ar
    13    13     9   ar
    14    14    12   ar
    15    23    22    1
    16     1     5    2
    17     9    18    1
    18     9    10   ar
    19    12    20    1
    20    12    11   ar
    21    25    22    1
    22    22    24    1
    23    22    15    1
    24    11    10   ar
    25    11    15    1
    26    10    19    1
