@<TRIPOS>MOLECULE
10_6a
 44 46 0 0 0
SMALL
USER_CHARGES
****
From 3DB ct
@<TRIPOS>ATOM
      1 N          10.0880    2.6000   12.8360 N.ar    1  LIG1       -0.6927
      2 C          10.7070    1.9770   11.8340 C.ar    1  LIG1        0.8358
      3 N          11.9920    2.1420   11.5180 N.ar    1  LIG1       -0.6933
      4 C          12.7080    3.0040   12.2500 C.ar    1  LIG1        0.5207
      5 C          12.1650    3.7150   13.3230 C.ar    1  LIG1       -0.5263
      6 C          10.8170    3.4440   13.5840 C.ar    1  LIG1        0.7064
      7 N          10.1200    4.0830   14.5960 N.pl3   1  LIG1       -0.7482
      8 H          10.5950    4.2450   15.4780 H       1  LIG1        0.3363
      9 H           9.1470    3.8080   14.6860 H       1  LIG1        0.3308
     10 C          12.9770    4.6290   14.0460 C.ar    1  LIG1        0.0796
     11 H          12.5500    5.1920   14.8750 H       1  LIG1        0.1111
     12 C          14.3220    4.8290   13.7130 C.ar    1  LIG1       -0.1043
     13 C          14.8520    4.1040   12.6450 C.ar    1  LIG1       -0.0332
     14 H          15.8930    4.2260   12.3510 H       1  LIG1        0.1219
     15 C          14.0450    3.2090   11.9320 C.ar    1  LIG1       -0.2701
     16 H          14.4830    2.6600   11.0990 H       1  LIG1        0.1398
     17 C          15.1710    5.8030   14.4890 C.3     1  LIG1       -0.0696
     18 H          15.2490    5.4690   15.5300 H       1  LIG1        0.1024
     19 H          14.7270    6.8050   14.4650 H       1  LIG1        0.0850
     20 O          16.4700    5.8380   13.8820 O.3     1  LIG1       -0.2906
     21 C          16.9250    7.0830   13.6060 C.2     1  LIG1        0.6607
     22 C          16.3490    7.5810   12.3250 C.ar    1  LIG1       -0.1010
     23 C          14.9960    7.9230   12.2010 C.ar    1  LIG1       -0.2778
     24 H          14.3200    7.8330   13.0490 H       1  LIG1        0.1538
     25 C          14.4890    8.3790   10.9820 C.ar    1  LIG1        0.3987
     26 C          15.3450    8.4950    9.8860 C.ar    1  LIG1       -0.3933
     27 H          14.9850    8.8490    8.9230 H       1  LIG1        0.1538
     28 C          16.6990    8.1560    9.9960 C.ar    1  LIG1        0.3563
     29 C          17.1990    7.6980   11.2150 C.ar    1  LIG1       -0.2419
     30 H          18.2450    7.4280   11.3290 H       1  LIG1        0.1205
     31 O          17.4220    8.3190    8.8440 O.3     1  LIG1       -0.2968
     32 C          18.7970    7.9390    8.8840 C.3     1  LIG1        0.0371
     33 H          19.2230    8.1300    7.8940 H       1  LIG1        0.0605
     34 H          18.9030    6.8700    9.0930 H       1  LIG1        0.0403
     35 H          19.3510    8.5440    9.6090 H       1  LIG1        0.0399
     36 O          13.1530    8.6740   10.9930 O.3     1  LIG1       -0.3087
     37 C          12.5850    9.1340    9.7670 C.3     1  LIG1        0.0611
     38 H          11.5200    9.3120    9.9400 H       1  LIG1        0.0556
     39 H          12.6730    8.3740    8.9830 H       1  LIG1        0.0342
     40 H          13.0370   10.0820    9.4560 H       1  LIG1        0.0330
     41 O          17.6960    7.7290   14.3030 O.2     1  LIG1       -0.4443
     42 N           9.9780    1.1110   11.0790 N.pl3   1  LIG1       -0.8496
     43 H          10.4160    0.6260   10.3090 H       1  LIG1        0.3875
     44 H           9.0010    0.9660   11.2880 H       1  LIG1        0.3790
@<TRIPOS>BOND
     1     1     2   ar
     2     2     3   ar
     3     3     4   ar
     4     4     5   ar
     5     5     6   ar
     6     6     1   ar
     7     6     7    1
     8     7     8    1
     9     7     9    1
    10     5    10   ar
    11    10    11    1
    12    10    12   ar
    13    12    13   ar
    14    13    14    1
    15    13    15   ar
    16    15    16    1
    17    15     4   ar
    18    12    17    1
    19    17    18    1
    20    17    19    1
    21    17    20    1
    22    20    21    1
    23    21    22    1
    24    22    23   ar
    25    23    24    1
    26    23    25   ar
    27    25    26   ar
    28    26    27    1
    29    26    28   ar
    30    28    29   ar
    31    29    30    1
    32    29    22   ar
    33    28    31    1
    34    31    32    1
    35    32    33    1
    36    32    34    1
    37    32    35    1
    38    25    36    1
    39    36    37    1
    40    37    38    1
    41    37    39    1
    42    37    40    1
    43    21    41    2
    44     2    42    1
    45    42    43    1
    46    42    44    1
