@<TRIPOS>MOLECULE
12_4c
 44 48 0 0 0
SMALL
USER_CHARGES
****
From 3DB ct
@<TRIPOS>ATOM
      1 N          10.3920    2.8450   12.9420 N.ar    1  LIG1       -0.6544
      2 C          10.8070    2.1960   11.8580 C.ar    1  LIG1        0.7519
      3 N          12.0520    2.2270   11.3930 N.ar    1  LIG1       -0.6676
      4 C          12.9400    2.9610   12.0560 C.ar    1  LIG1        0.6367
      5 C          12.6350    3.6940   13.2090 C.ar    1  LIG1       -0.3426
      6 C          11.3070    3.5720   13.6080 C.ar    1  LIG1        0.6432
      7 N          10.8280    4.2720   14.7080 N.pl3   1  LIG1       -0.7283
      8 H          11.4920    4.5010   15.4430 H       1  LIG1        0.3481
      9 H           9.8650    4.1130   14.9780 H       1  LIG1        0.3482
     10 N          13.5720    4.4420   13.8740 N.ar    1  LIG1       -0.2276
     11 C          14.8280    4.4660   13.3610 C.ar    1  LIG1        0.1480
     12 C          15.1150    3.7230   12.2280 C.ar    1  LIG1        0.1714
     13 H          16.1150    3.7000   11.8030 H       1  LIG1        0.1164
     14 N          14.1870    2.9770   11.5700 N.ar    1  LIG1       -0.4653
     15 C          15.9410    5.2420   14.0500 C.3     1  LIG1       -0.1353
     16 H          16.5060    4.5660   14.7070 H       1  LIG1        0.0880
     17 H          15.4870    5.9490   14.7540 H       1  LIG1        0.1130
     18 N          16.8760    5.9270   13.1180 N.pl3   1  LIG1       -0.2634
     19 C          16.3350    6.8210   12.1620 C.ar    1  LIG1        0.0631
     20 C          17.1560    7.2840   11.1130 C.ar    1  LIG1        0.0667
     21 C          16.6560    8.1690   10.1390 C.ar    1  LIG1       -0.1564
     22 H          17.2980    8.5070    9.3250 H       1  LIG1        0.1272
     23 C          15.3430    8.6200   10.1990 C.ar    1  LIG1       -0.1171
     24 H          14.9630    9.3060    9.4450 H       1  LIG1        0.1087
     25 C          14.5230    8.1890   11.2320 C.ar    1  LIG1       -0.1295
     26 H          13.4950    8.5410   11.2940 H       1  LIG1        0.1174
     27 C          15.0140    7.3030   12.2000 C.ar    1  LIG1       -0.0718
     28 H          14.3230    7.0200   12.9890 H       1  LIG1        0.0813
     29 C          18.5800    6.8060   10.9790 C.3     1  LIG1       -0.2252
     30 H          19.2210    7.6820   10.8120 H       1  LIG1        0.0788
     31 H          18.6440    6.1550   10.0980 H       1  LIG1        0.0813
     32 C          19.1170    6.0510   12.1680 C.ar    1  LIG1        0.0168
     33 C          18.2560    5.6180   13.1980 C.ar    1  LIG1        0.2100
     34 C          18.8420    4.9180   14.2680 C.ar    1  LIG1       -0.2519
     35 H          18.2570    4.5900   15.1230 H       1  LIG1        0.1379
     36 C          20.2130    4.6320   14.3030 C.ar    1  LIG1       -0.0572
     37 H          20.6310    4.0880   15.1490 H       1  LIG1        0.1048
     38 C          21.0390    5.0470   13.2680 C.ar    1  LIG1       -0.1458
     39 H          22.1040    4.8240   13.2920 H       1  LIG1        0.1106
     40 C          20.4940    5.7550   12.2040 C.ar    1  LIG1       -0.1257
     41 H          21.1450    6.0820   11.3930 H       1  LIG1        0.1238
     42 N           9.8950    1.4500   11.1790 N.pl3   1  LIG1       -0.7575
     43 H          10.1740    0.9420   10.3520 H       1  LIG1        0.3698
     44 H           8.9410    1.4060   11.5060 H       1  LIG1        0.3595
@<TRIPOS>BOND
     1     1     2   ar
     2     2     3   ar
     3     3     4   ar
     4     4     5   ar
     5     5     6   ar
     6     6     1   ar
     7     6     7    1
     8     7     8    1
     9     7     9    1
    10     5    10   ar
    11    10    11   ar
    12    11    12   ar
    13    12    13    1
    14    12    14   ar
    15    14     4   ar
    16    11    15    1
    17    15    16    1
    18    15    17    1
    19    15    18    1
    20    18    19    1
    21    19    20   ar
    22    20    21   ar
    23    21    22    1
    24    21    23   ar
    25    23    24    1
    26    23    25   ar
    27    25    26    1
    28    25    27   ar
    29    27    28    1
    30    27    19   ar
    31    20    29    1
    32    29    30    1
    33    29    31    1
    34    29    32    1
    35    32    33   ar
    36    33    18    1
    37    33    34   ar
    38    34    35    1
    39    34    36   ar
    40    36    37    1
    41    36    38   ar
    42    38    39    1
    43    38    40   ar
    44    40    41    1
    45    40    32   ar
    46     2    42    1
    47    42    43    1
    48    42    44    1
