@<TRIPOS>MOLECULE
13_14
 47 49 0 0 0
SMALL
USER_CHARGES
****
From 3DB ct
@<TRIPOS>ATOM
      1 N          10.1530    2.7160   12.8370 N.ar    1  LIG1       -0.6438
      2 C          10.7570    2.0440   11.8640 C.ar    1  LIG1        0.7593
      3 N          12.0380    2.1880   11.5450 N.ar    1  LIG1       -0.6235
      4 C          12.7690    3.0630   12.2450 C.ar    1  LIG1        0.2536
      5 C          12.2630    3.8370   13.2940 C.ar    1  LIG1       -0.0889
      6 C          10.8920    3.5960   13.5390 C.ar    1  LIG1        0.5953
      7 N          10.1800    4.2530   14.5390 N.pl3   1  LIG1       -0.7829
      8 H          10.5390    4.0680   15.4750 H       1  LIG1        0.3617
      9 H          10.1490    5.2640   14.4120 H       1  LIG1        0.3521
     10 C          13.1640    4.7410   13.9600 C.ar    1  LIG1       -0.5124
     11 C          14.5260    4.8670   13.5890 C.ar    1  LIG1        0.6491
     12 C          14.9690    4.0720   12.5370 C.ar    1  LIG1       -0.3127
     13 H          15.9980    4.1140   12.1900 H       1  LIG1        0.1625
     14 C          14.1010    3.1920   11.8870 C.ar    1  LIG1       -0.0635
     15 H          14.4920    2.5880   11.0690 H       1  LIG1        0.1201
     16 N          15.3660    5.7430   14.2560 N.pl3   1  LIG1       -0.8569
     17 H          15.3060    5.7560   15.2740 H       1  LIG1        0.3629
     18 C          16.3910    6.5900   13.6710 C.3     1  LIG1        0.3617
     19 H          17.2640    5.9720   13.4300 H       1  LIG1       -0.0024
     20 H          16.7320    7.3330   14.4010 H       1  LIG1        0.0143
     21 C          15.9210    7.2460   12.3880 C.ar    1  LIG1       -0.0578
     22 C          16.8290    7.5670   11.3580 C.ar    1  LIG1       -0.3460
     23 H          17.8760    7.3180   11.5090 H       1  LIG1        0.1660
     24 C          16.3960    8.1770   10.1760 C.ar    1  LIG1        0.2785
     25 C          15.0340    8.4820   10.0320 C.ar    1  LIG1       -0.0280
     26 C          14.1380    8.2260   11.0750 C.ar    1  LIG1        0.1586
     27 C          14.5710    7.5910   12.2370 C.ar    1  LIG1       -0.1253
     28 H          13.8550    7.3690   13.0260 H       1  LIG1        0.1291
     29 O          12.8050    8.5250   10.9570 O.3     1  LIG1       -0.2885
     30 C          12.5600    9.1890    9.7120 C.3     1  LIG1        0.1066
     31 H          11.4970    9.4470    9.6760 H       1  LIG1        0.0290
     32 H          12.7780    8.5340    8.8620 H       1  LIG1        0.0333
     33 H          13.1380   10.1160    9.6380 H       1  LIG1        0.0281
     34 O          14.5870    9.0930    8.8840 O.3     1  LIG1       -0.2112
     35 C          15.6860    9.3050    7.9920 C.3     1  LIG1       -0.0303
     36 H          15.2990    9.8020    7.0980 H       1  LIG1        0.0617
     37 H          16.1370    8.3550    7.6840 H       1  LIG1        0.0497
     38 H          16.4430    9.9570    8.4420 H       1  LIG1        0.0570
     39 O          17.2060    8.5110    9.1200 O.3     1  LIG1       -0.2485
     40 C          18.5930    8.2080    9.2460 C.3     1  LIG1       -0.0146
     41 H          19.0820    8.4960    8.3110 H       1  LIG1        0.0745
     42 H          18.7510    7.1330    9.3860 H       1  LIG1        0.0419
     43 H          19.0510    8.7870   10.0540 H       1  LIG1        0.0492
     44 CL         12.6140    5.7400   15.2870 Cl      1  LIG1        0.0527
     45 N          10.0210    1.1530   11.1470 N.pl3   1  LIG1       -0.8103
     46 H          10.4560    0.6340   10.3990 H       1  LIG1        0.3720
     47 H           9.0430    1.0220   11.3610 H       1  LIG1        0.3669
@<TRIPOS>BOND
     1     1     2   ar
     2     2     3   ar
     3     3     4   ar
     4     4     5   ar
     5     5     6   ar
     6     6     1   ar
     7     6     7    1
     8     7     8    1
     9     7     9    1
    10     5    10   ar
    11    10    11   ar
    12    11    12   ar
    13    12    13    1
    14    12    14   ar
    15    14    15    1
    16    14     4   ar
    17    11    16    1
    18    16    17    1
    19    16    18    1
    20    18    19    1
    21    18    20    1
    22    18    21    1
    23    21    22   ar
    24    22    23    1
    25    22    24   ar
    26    24    25   ar
    27    25    26   ar
    28    26    27   ar
    29    27    28    1
    30    27    21   ar
    31    26    29    1
    32    29    30    1
    33    30    31    1
    34    30    32    1
    35    30    33    1
    36    25    34    1
    37    34    35    1
    38    35    36    1
    39    35    37    1
    40    35    38    1
    41    24    39    1
    42    39    40    1
    43    40    41    1
    44    40    42    1
    45    40    43    1
    46    10    44    1
    47     2    45    1
    48    45    46    1
    49    45    47    1
