@<TRIPOS>MOLECULE
13_17
 50 52 0 0 0
SMALL
USER_CHARGES
****
From 3DB ct
@<TRIPOS>ATOM
      1 N          10.1580    2.7170   12.7880 N.ar    1  LIG1       -0.6851
      2 C          10.7730    2.0750   11.8030 C.ar    1  LIG1        0.8120
      3 N          12.0570    2.2330   11.5000 N.ar    1  LIG1       -0.6624
      4 C          12.7780    3.0900   12.2320 C.ar    1  LIG1        0.3675
      5 C          12.2580    3.8280   13.3020 C.ar    1  LIG1       -0.2956
      6 C          10.8860    3.5750   13.5250 C.ar    1  LIG1        0.6872
      7 N          10.1550    4.2150   14.5220 N.pl3   1  LIG1       -0.8048
      8 H          10.5270    4.0550   15.4580 H       1  LIG1        0.3614
      9 H          10.0820    5.2220   14.3850 H       1  LIG1        0.3535
     10 C          13.1470    4.7120   14.0100 C.ar    1  LIG1       -0.2907
     11 C          14.5110    4.8530   13.6490 C.ar    1  LIG1        0.5319
     12 C          14.9690    4.0970   12.5710 C.ar    1  LIG1       -0.2923
     13 H          16.0000    4.1740   12.2320 H       1  LIG1        0.1627
     14 C          14.1110    3.2340   11.8870 C.ar    1  LIG1       -0.1278
     15 H          14.5100    2.6630   11.0490 H       1  LIG1        0.1306
     16 N          15.3730    5.7240   14.3290 N.pl3   1  LIG1       -0.5237
     17 C          16.4600    6.3980   13.5970 C.3     1  LIG1        0.1385
     18 H          17.1910    5.6530   13.2540 H       1  LIG1        0.0155
     19 H          17.0060    7.0770   14.2630 H       1  LIG1        0.0715
     20 C          15.9540    7.1250   12.3650 C.ar    1  LIG1       -0.1383
     21 C          16.8440    7.4890   11.3340 C.ar    1  LIG1       -0.1830
     22 H          17.8930    7.2340   11.4630 H       1  LIG1        0.1605
     23 C          16.3890    8.1390   10.1830 C.ar    1  LIG1        0.0702
     24 C          15.0250    8.4520   10.0780 C.ar    1  LIG1        0.2706
     25 C          14.1460    8.1530   11.1260 C.ar    1  LIG1       -0.1003
     26 C          14.5990    7.4670   12.2510 C.ar    1  LIG1        0.0188
     27 H          13.8960    7.2050   13.0400 H       1  LIG1        0.1089
     28 O          12.8120    8.4610   11.0480 O.3     1  LIG1       -0.2134
     29 C          12.5370    9.1380    9.8160 C.3     1  LIG1       -0.0223
     30 H          11.4730    9.3910    9.8040 H       1  LIG1        0.0600
     31 H          12.7420    8.4960    8.9530 H       1  LIG1        0.0479
     32 H          13.1100   10.0690    9.7420 H       1  LIG1        0.0635
     33 O          14.5590    9.1110    8.9640 O.3     1  LIG1       -0.2701
     34 C          15.6260    9.2950    8.0280 C.3     1  LIG1        0.0276
     35 H          15.2230    9.8360    7.1670 H       1  LIG1        0.0501
     36 H          16.0140    8.3340    7.6730 H       1  LIG1        0.0426
     37 H          16.4340    9.8960    8.4590 H       1  LIG1        0.0481
     38 O          17.1790    8.5110    9.1260 O.3     1  LIG1       -0.2983
     39 C          18.5720    8.2250    9.2290 C.3     1  LIG1        0.0934
     40 H          19.0410    8.5090    8.2820 H       1  LIG1        0.0448
     41 H          18.7450    7.1550    9.3760 H       1  LIG1        0.0130
     42 H          19.0370    8.8190   10.0220 H       1  LIG1        0.0237
     43 C          14.7230    6.5170   15.3750 C.3     1  LIG1        0.0358
     44 H          14.1210    7.3180   14.9310 H       1  LIG1        0.0465
     45 H          15.4760    6.9740   16.0270 H       1  LIG1        0.0198
     46 H          14.0730    5.9070   16.0110 H       1  LIG1        0.0231
     47 CL         12.5800    5.6200   15.3930 Cl      1  LIG1        0.0810
     48 N          10.0460    1.2020   11.0560 N.pl3   1  LIG1       -0.8277
     49 H          10.4890    0.6980   10.3020 H       1  LIG1        0.3799
     50 H           9.0690    1.0580   11.2650 H       1  LIG1        0.3735
@<TRIPOS>BOND
     1     1     2   ar
     2     2     3   ar
     3     3     4   ar
     4     4     5   ar
     5     5     6   ar
     6     6     1   ar
     7     6     7    1
     8     7     8    1
     9     7     9    1
    10     5    10   ar
    11    10    11   ar
    12    11    12   ar
    13    12    13    1
    14    12    14   ar
    15    14    15    1
    16    14     4   ar
    17    11    16    1
    18    16    17    1
    19    17    18    1
    20    17    19    1
    21    17    20    1
    22    20    21   ar
    23    21    22    1
    24    21    23   ar
    25    23    24   ar
    26    24    25   ar
    27    25    26   ar
    28    26    27    1
    29    26    20   ar
    30    25    28    1
    31    28    29    1
    32    29    30    1
    33    29    31    1
    34    29    32    1
    35    24    33    1
    36    33    34    1
    37    34    35    1
    38    34    36    1
    39    34    37    1
    40    23    38    1
    41    38    39    1
    42    39    40    1
    43    39    41    1
    44    39    42    1
    45    16    43    1
    46    43    44    1
    47    43    45    1
    48    43    46    1
    49    10    47    1
    50     2    48    1
    51    48    49    1
    52    48    50    1
