@<TRIPOS>MOLECULE
14_22
 40 42 0 0 0
SMALL
USER_CHARGES
****
From 3DB ct
@<TRIPOS>ATOM
      1 N          10.1120    2.6450   12.7870 N.ar    1  LIG1       -0.7161
      2 C          10.7870    1.9740   11.8650 C.ar    1  LIG1        0.8188
      3 N          12.0730    2.1550   11.6090 N.ar    1  LIG1       -0.7085
      4 C          12.7330    3.0570   12.3150 C.ar    1  LIG1        0.8392
      5 C          12.1570    3.8320   13.3290 C.ar    1  LIG1       -0.8658
      6 C          10.7800    3.5620   13.5040 C.ar    1  LIG1        0.8174
      7 N           9.9860    4.2120   14.4360 N.pl3   1  LIG1       -0.7509
      8 H          10.2020    3.9970   15.4060 H       1  LIG1        0.3221
      9 H           9.9050    5.2170   14.3050 H       1  LIG1        0.3221
     10 C          13.0120    4.7720   14.0280 C.ar    1  LIG1        0.4929
     11 C          14.3580    4.9040   13.6300 C.ar    1  LIG1       -0.4360
     12 C          14.7920    4.0680   12.6140 C.ar    1  LIG1        0.3799
     13 H          15.8220    4.1020   12.2600 H       1  LIG1        0.0862
     14 N          14.0130    3.1670   11.9770 N.ar    1  LIG1       -0.5825
     15 C          15.3550    5.8770   14.2330 C.3     1  LIG1        0.1515
     16 H          15.8700    5.4240   15.0890 H       1  LIG1        0.0724
     17 H          14.7680    6.7080   14.6410 H       1  LIG1        0.0458
     18 N          16.3720    6.3250   13.2650 N.pl3   1  LIG1       -0.4540
     19 C          16.0470    7.1360   12.1830 C.ar    1  LIG1        0.3373
     20 C          14.7590    7.6820   12.0430 C.ar    1  LIG1       -0.2782
     21 H          13.9910    7.4940   12.7920 H       1  LIG1        0.1169
     22 C          14.4140    8.5060   10.9630 C.ar    1  LIG1        0.1529
     23 H          13.4050    8.9080   10.9040 H       1  LIG1        0.0609
     24 C          15.3550    8.8060    9.9840 C.ar    1  LIG1       -0.2911
     25 C          16.6410    8.2770   10.0910 C.ar    1  LIG1       -0.1347
     26 C          16.9760    7.4540   11.1780 C.ar    1  LIG1       -0.0518
     27 H          17.9800    7.0390   11.2080 H       1  LIG1        0.0565
     28 CL         17.8690    8.5940    8.9120 Cl      1  LIG1        0.0576
     29 CL         14.8730    9.8270    8.6760 Cl      1  LIG1        0.0592
     30 C          17.7820    6.0530   13.5520 C.3     1  LIG1       -0.0473
     31 H          18.1450    5.2230   12.9350 H       1  LIG1        0.0781
     32 H          17.9370    5.7860   14.6030 H       1  LIG1        0.0761
     33 H          18.4060    6.9360   13.3690 H       1  LIG1        0.0618
     34 C          12.4760    5.6120   15.1610 C.3     1  LIG1       -0.2257
     35 H          12.0060    4.9780   15.9170 H       1  LIG1        0.0783
     36 H          11.7640    6.3510   14.7810 H       1  LIG1        0.0681
     37 H          13.2520    6.1590   15.6980 H       1  LIG1        0.0447
     38 N          10.1160    1.0430   11.1350 N.pl3   1  LIG1       -0.8131
     39 H          10.6010    0.5150   10.4250 H       1  LIG1        0.3828
     40 H           9.1340    0.8840   11.3090 H       1  LIG1        0.3762
@<TRIPOS>BOND
     1     1     2   ar
     2     2     3   ar
     3     3     4   ar
     4     4     5   ar
     5     5     6   ar
     6     6     1   ar
     7     6     7    1
     8     7     8    1
     9     7     9    1
    10     5    10   ar
    11    10    11   ar
    12    11    12   ar
    13    12    13    1
    14    12    14   ar
    15    14     4   ar
    16    11    15    1
    17    15    16    1
    18    15    17    1
    19    15    18    1
    20    18    19    1
    21    19    20   ar
    22    20    21    1
    23    20    22   ar
    24    22    23    1
    25    22    24   ar
    26    24    25   ar
    27    25    26   ar
    28    26    27    1
    29    26    19   ar
    30    25    28    1
    31    24    29    1
    32    18    30    1
    33    30    31    1
    34    30    32    1
    35    30    33    1
    36    10    34    1
    37    34    35    1
    38    34    36    1
    39    34    37    1
    40     2    38    1
    41    38    39    1
    42    38    40    1
