@<TRIPOS>MOLECULE
14_8
 37 39 0 0 0
SMALL
USER_CHARGES
****
From 3DB ct
@<TRIPOS>ATOM
      1 N          10.1510    2.6380   12.9120 N.ar    1  LIG1       -0.6661
      2 C          10.7120    1.9610   11.9120 C.ar    1  LIG1        0.7976
      3 N          11.9780    2.1070   11.5240 N.ar    1  LIG1       -0.6370
      4 C          12.7310    3.0010   12.1910 C.ar    1  LIG1        0.2507
      5 C          12.2680    3.7730   13.2580 C.ar    1  LIG1       -0.1309
      6 C          10.9310    3.5170   13.5740 C.ar    1  LIG1        0.6347
      7 N          10.2940    4.2350   14.5790 N.pl3   1  LIG1       -0.7563
      8 H          10.8700    4.5750   15.3450 H       1  LIG1        0.3571
      9 H           9.3370    3.9780   14.7930 H       1  LIG1        0.3548
     10 N          13.0510    4.6760   13.9260 N.ar    1  LIG1       -0.3744
     11 C          14.3430    4.8350   13.5350 C.ar    1  LIG1        0.3529
     12 C          14.8710    4.1060   12.4790 C.ar    1  LIG1       -0.2934
     13 H          15.9040    4.2360   12.1660 H       1  LIG1        0.1560
     14 C          14.0520    3.1910   11.8170 C.ar    1  LIG1       -0.0473
     15 H          14.4630    2.6150   10.9900 H       1  LIG1        0.1214
     16 C          15.2070    5.8470   14.2810 C.3     1  LIG1       -0.1601
     17 H          15.6140    5.2980   15.1390 H       1  LIG1        0.1023
     18 H          14.5890    6.6600   14.6830 H       1  LIG1        0.0939
     19 N          16.2850    6.4280   13.4510 N.pl3   1  LIG1       -0.2301
     20 C          16.0070    7.1700   12.3120 C.ar    1  LIG1        0.2976
     21 C          16.9780    7.4190   11.3260 C.ar    1  LIG1       -0.3492
     22 H          17.9980    7.0550   11.4390 H       1  LIG1        0.1287
     23 C          16.6950    8.1710   10.1770 C.ar    1  LIG1        0.2360
     24 H          17.4790    8.3420    9.4430 H       1  LIG1        0.0471
     25 C          15.4230    8.6950    9.9880 C.ar    1  LIG1       -0.5057
     26 C          14.4380    8.4740   10.9410 C.ar    1  LIG1        0.2192
     27 H          13.4360    8.8750   10.8080 H       1  LIG1        0.0514
     28 C          14.7330    7.7220   12.0870 C.ar    1  LIG1       -0.2986
     29 H          13.9240    7.5590   12.7980 H       1  LIG1        0.1218
     30 CL         15.0690    9.6170    8.5800 Cl      1  LIG1        0.0700
     31 C          17.6730    6.1190   13.8000 C.3     1  LIG1       -0.0167
     32 H          18.1300    6.9580   14.3350 H       1  LIG1        0.0410
     33 H          18.2690    5.8960   12.9070 H       1  LIG1        0.0403
     34 H          17.7410    5.2310   14.4370 H       1  LIG1        0.0588
     35 N           9.9430    1.0640   11.2390 N.pl3   1  LIG1       -0.8210
     36 H          10.3390    0.5390   10.4740 H       1  LIG1        0.3790
     37 H           8.9780    0.9320   11.5050 H       1  LIG1        0.3745
@<TRIPOS>BOND
     1     1     2   ar
     2     2     3   ar
     3     3     4   ar
     4     4     5   ar
     5     5     6   ar
     6     6     1   ar
     7     6     7    1
     8     7     8    1
     9     7     9    1
    10     5    10   ar
    11    10    11   ar
    12    11    12   ar
    13    12    13    1
    14    12    14   ar
    15    14    15    1
    16    14     4   ar
    17    11    16    1
    18    16    17    1
    19    16    18    1
    20    16    19    1
    21    19    20    1
    22    20    21   ar
    23    21    22    1
    24    21    23   ar
    25    23    24    1
    26    23    25   ar
    27    25    26   ar
    28    26    27    1
    29    26    28   ar
    30    28    29    1
    31    28    20   ar
    32    25    30    1
    33    19    31    1
    34    31    32    1
    35    31    33    1
    36    31    34    1
    37     2    35    1
    38    35    36    1
    39    35    37    1
