@<TRIPOS>MOLECULE
14_9
 37 39 0 0 0
SMALL
USER_CHARGES
****
From 3DB ct
@<TRIPOS>ATOM
      1 N          10.1510    2.6380   12.9130 N.ar    1  LIG1       -0.6645
      2 C          10.7120    1.9600   11.9130 C.ar    1  LIG1        0.7937
      3 N          11.9780    2.1070   11.5240 N.ar    1  LIG1       -0.6360
      4 C          12.7300    3.0020   12.1890 C.ar    1  LIG1        0.2526
      5 C          12.2680    3.7730   13.2570 C.ar    1  LIG1       -0.1285
      6 C          10.9310    3.5180   13.5730 C.ar    1  LIG1        0.6327
      7 N          10.2950    4.2380   14.5780 N.pl3   1  LIG1       -0.7583
      8 H          10.8710    4.5810   15.3410 H       1  LIG1        0.3576
      9 H           9.3380    3.9810   14.7930 H       1  LIG1        0.3555
     10 N          13.0510    4.6770   13.9250 N.ar    1  LIG1       -0.3723
     11 C          14.3420    4.8350   13.5340 C.ar    1  LIG1        0.3283
     12 C          14.8700    4.1080   12.4760 C.ar    1  LIG1       -0.2735
     13 H          15.9030    4.2380   12.1630 H       1  LIG1        0.1499
     14 C          14.0510    3.1930   11.8140 C.ar    1  LIG1       -0.0545
     15 H          14.4610    2.6180   10.9860 H       1  LIG1        0.1224
     16 C          15.2080    5.8440   14.2840 C.3     1  LIG1       -0.1153
     17 H          15.6160    5.2900   15.1380 H       1  LIG1        0.0947
     18 H          14.5920    6.6560   14.6880 H       1  LIG1        0.0843
     19 N          16.2850    6.4270   13.4530 N.pl3   1  LIG1       -0.2435
     20 C          16.0050    7.1700   12.3130 C.ar    1  LIG1        0.1280
     21 C          14.7320    7.7200   12.0750 C.ar    1  LIG1       -0.1170
     22 H          13.9120    7.5560   12.7710 H       1  LIG1        0.0994
     23 C          14.4490    8.4700   10.9250 C.ar    1  LIG1       -0.1465
     24 H          13.4500    8.8740   10.7750 H       1  LIG1        0.1222
     25 C          15.4380    8.6890    9.9740 C.ar    1  LIG1        0.0644
     26 H          15.2150    9.2700    9.0830 H       1  LIG1        0.0618
     27 C          16.7040    8.1550   10.1810 C.ar    1  LIG1       -0.3367
     28 C          16.9820    7.4060   11.3300 C.ar    1  LIG1        0.0116
     29 H          17.9920    7.0240   11.4590 H       1  LIG1        0.0556
     30 CL         17.9420    8.4190    9.0130 Cl      1  LIG1        0.0631
     31 C          17.6730    6.1270   13.8060 C.3     1  LIG1       -0.0040
     32 H          18.1220    6.9690   14.3430 H       1  LIG1        0.0423
     33 H          18.2730    5.9080   12.9160 H       1  LIG1        0.0442
     34 H          17.7440    5.2400   14.4440 H       1  LIG1        0.0527
     35 N           9.9450    1.0610   11.2420 N.pl3   1  LIG1       -0.8182
     36 H          10.3420    0.5340   10.4790 H       1  LIG1        0.3782
     37 H           8.9810    0.9270   11.5100 H       1  LIG1        0.3736
@<TRIPOS>BOND
     1     1     2   ar
     2     2     3   ar
     3     3     4   ar
     4     4     5   ar
     5     5     6   ar
     6     6     1   ar
     7     6     7    1
     8     7     8    1
     9     7     9    1
    10     5    10   ar
    11    10    11   ar
    12    11    12   ar
    13    12    13    1
    14    12    14   ar
    15    14    15    1
    16    14     4   ar
    17    11    16    1
    18    16    17    1
    19    16    18    1
    20    16    19    1
    21    19    20    1
    22    20    21   ar
    23    21    22    1
    24    21    23   ar
    25    23    24    1
    26    23    25   ar
    27    25    26    1
    28    25    27   ar
    29    27    28   ar
    30    28    29    1
    31    28    20   ar
    32    27    30    1
    33    19    31    1
    34    31    32    1
    35    31    33    1
    36    31    34    1
    37     2    35    1
    38    35    36    1
    39    35    37    1
