@<TRIPOS>MOLECULE
15_5
 43 45 0 0 0
SMALL
USER_CHARGES
****
From 3DB ct
@<TRIPOS>ATOM
      1 N          10.1840    2.7610   12.8740 N.ar    1  LIG1       -0.6609
      2 C          10.7490    2.0630   11.8900 C.ar    1  LIG1        0.7620
      3 N          12.0310    2.1580   11.5340 N.ar    1  LIG1       -0.6449
      4 C          12.8010    3.0230   12.2080 C.ar    1  LIG1        0.4148
      5 C          12.3180    3.8050   13.2570 C.ar    1  LIG1       -0.3770
      6 C          10.9670    3.6070   13.5620 C.ar    1  LIG1        0.6674
      7 N          10.3230    4.3240   14.5550 N.pl3   1  LIG1       -0.7515
      8 H          10.8260    4.5120   15.4160 H       1  LIG1        0.3332
      9 H           9.3410    4.0970   14.6820 H       1  LIG1        0.3213
     10 C          13.1910    4.7150   13.9160 C.ar    1  LIG1       -0.2140
     11 H          12.8000    5.3290   14.7250 H       1  LIG1        0.1103
     12 C          14.5370    4.8480   13.5580 C.ar    1  LIG1        0.3021
     13 C          14.9920    4.0520   12.5110 C.ar    1  LIG1       -0.1225
     14 H          16.0240    4.1020   12.1720 H       1  LIG1        0.1312
     15 C          14.1340    3.1580   11.8530 C.ar    1  LIG1       -0.2163
     16 H          14.5320    2.5560   11.0370 H       1  LIG1        0.1365
     17 N          15.3260    5.7470   14.2400 N.pl3   1  LIG1       -0.6547
     18 H          15.2620    5.7790   15.2560 H       1  LIG1        0.3302
     19 C          16.3200    6.6360   13.6500 C.3     1  LIG1        0.2146
     20 H          17.2060    6.0420   13.3910 H       1  LIG1        0.0322
     21 H          16.6580    7.3630   14.3940 H       1  LIG1        0.0310
     22 C          15.8200    7.2820   12.3710 C.ar    1  LIG1       -0.2837
     23 C          14.4450    7.5260   12.2130 C.ar    1  LIG1        0.1330
     24 H          13.7490    7.2740   13.0130 H       1  LIG1        0.0985
     25 C          13.9500    8.0970   11.0410 C.ar    1  LIG1       -0.4156
     26 H          12.8810    8.2820   10.9470 H       1  LIG1        0.1672
     27 C          14.8120    8.4260    9.9980 C.ar    1  LIG1        0.3815
     28 C          16.1800    8.1740   10.1330 C.ar    1  LIG1       -0.3516
     29 H          16.8520    8.4200    9.3190 H       1  LIG1        0.1331
     30 C          16.6900    7.6000   11.3100 C.ar    1  LIG1        0.2820
     31 O          18.0150    7.3070   11.5120 O.3     1  LIG1       -0.2471
     32 C          18.9260    7.5780   10.4490 C.3     1  LIG1       -0.0019
     33 H          19.9300    7.3130   10.7960 H       1  LIG1        0.0692
     34 H          18.9320    8.6440   10.1970 H       1  LIG1        0.0434
     35 H          18.7020    6.9600    9.5740 H       1  LIG1        0.0483
     36 O          14.2000    8.9780    8.9060 O.3     1  LIG1       -0.2912
     37 C          15.0350    9.3350    7.8060 C.3     1  LIG1        0.0562
     38 H          14.3960    9.7650    7.0290 H       1  LIG1        0.0596
     39 H          15.5270    8.4530    7.3840 H       1  LIG1        0.0290
     40 H          15.7640   10.0980    8.0970 H       1  LIG1        0.0252
     41 N           9.9660    1.1920   11.1980 N.pl3   1  LIG1       -0.8243
     42 H          10.3650    0.6480   10.4470 H       1  LIG1        0.3748
     43 H           8.9920    1.0940   11.4400 H       1  LIG1        0.3693
@<TRIPOS>BOND
     1     1     2   ar
     2     2     3   ar
     3     3     4   ar
     4     4     5   ar
     5     5     6   ar
     6     6     1   ar
     7     6     7    1
     8     7     8    1
     9     7     9    1
    10     5    10   ar
    11    10    11    1
    12    10    12   ar
    13    12    13   ar
    14    13    14    1
    15    13    15   ar
    16    15    16    1
    17    15     4   ar
    18    12    17    1
    19    17    18    1
    20    17    19    1
    21    19    20    1
    22    19    21    1
    23    19    22    1
    24    22    23   ar
    25    23    24    1
    26    23    25   ar
    27    25    26    1
    28    25    27   ar
    29    27    28   ar
    30    28    29    1
    31    28    30   ar
    32    30    22   ar
    33    30    31    1
    34    31    32    1
    35    32    33    1
    36    32    34    1
    37    32    35    1
    38    27    36    1
    39    36    37    1
    40    37    38    1
    41    37    39    1
    42    37    40    1
    43     2    41    1
    44    41    42    1
    45    41    43    1
