@<TRIPOS>MOLECULE
1_131463
 38 40 0 0 0
SMALL
USER_CHARGES
****
From 3DB ct
@<TRIPOS>ATOM
      1 C          12.2000    3.8600   13.2730 C.ar    1  LIG1       -0.3097
      2 C          10.8450    3.4660   13.6300 C.ar    1  LIG1        0.6611
      3 N          10.1440    2.5940   12.8960 N.ar    1  LIG1       -0.6577
      4 C          10.6980    1.9790   11.8240 C.ar    1  LIG1        0.7324
      5 N          12.0400    2.1470   11.5440 N.ar    1  LIG1       -0.6625
      6 C          12.7710    3.0540   12.3160 C.ar    1  LIG1        0.5914
      7 N          14.0870    3.0620   11.9480 N.ar    1  LIG1       -0.4482
      8 C          14.8420    3.9790   12.6210 C.ar    1  LIG1        0.1853
      9 H          15.7750    3.9430   12.4450 H       1  LIG1        0.0928
     10 C          14.3310    4.9350   13.5230 C.ar    1  LIG1        0.1661
     11 N          12.9740    4.8700   13.8600 N.ar    1  LIG1       -0.2456
     12 C          15.2830    5.9410   14.2710 C.3     1  LIG1       -0.1963
     13 H          14.7820    6.6920   14.5650 H       1  LIG1        0.1039
     14 H          15.6790    5.5090   15.0190 H       1  LIG1        0.0939
     15 N          16.3690    6.3880   13.3050 N.pl3   1  LIG1       -0.1117
     16 C          16.0360    7.0980   12.2490 C.ar    1  LIG1       -0.0138
     17 C          14.7390    7.6590   12.0820 C.ar    1  LIG1       -0.1509
     18 H          13.9100    7.4950   12.7940 H       1  LIG1        0.0846
     19 C          14.4550    8.4760   10.9900 C.ar    1  LIG1       -0.1499
     20 H          13.4480    8.9260   10.8660 H       1  LIG1        0.1331
     21 C          15.4170    8.7250   10.0190 C.ar    1  LIG1        0.0535
     22 C          16.6720    8.2010   10.0950 C.ar    1  LIG1       -0.1311
     23 H          17.3870    8.3670    9.2780 H       1  LIG1        0.1309
     24 C          17.0030    7.4330   11.2800 C.ar    1  LIG1       -0.1708
     25 H          18.0420    7.0620   11.3100 H       1  LIG1        0.0785
     26 C          14.9540    9.6510    8.9170 C.2     1  LIG1        0.5088
     27 O          13.6850   10.2100    9.0760 O.co2   1  LIG1       -0.6767
     28 O          15.7300    9.9330    8.0140 O.co2   1  LIG1       -0.6770
     29 C          17.6630    6.0650   13.5210 C.3     1  LIG1        0.0036
     30 H          17.7440    5.4790   14.4370 H       1  LIG1        0.0197
     31 H          18.0360    5.4790   12.6800 H       1  LIG1        0.0363
     32 H          18.2530    6.9760   13.6190 H       1  LIG1        0.0270
     33 N          10.0000    1.2030   11.0730 N.pl3   1  LIG1       -0.7583
     34 H           9.1310    1.0630   11.2570 H       1  LIG1        0.3526
     35 H          10.3810    0.8010   10.3640 H       1  LIG1        0.3626
     36 N          10.1820    3.9600   14.7110 N.pl3   1  LIG1       -0.7715
     37 H          10.5820    4.5620   15.2480 H       1  LIG1        0.3626
     38 H           9.3440    3.6840   14.8900 H       1  LIG1        0.3511
@<TRIPOS>BOND
     1     1     2   ar
     2     2     3   ar
     3     3     4   ar
     4     4     5   ar
     5     5     6   ar
     6     6     1   ar
     7     6     7   ar
     8     7     8   ar
     9     8     9    1
    10     8    10   ar
    11    10    11   ar
    12    11     1   ar
    13    10    12    1
    14    12    13    1
    15    12    14    1
    16    12    15    1
    17    15    16    1
    18    16    17   ar
    19    17    18    1
    20    17    19   ar
    21    19    20    1
    22    19    21   ar
    23    21    22   ar
    24    22    23    1
    25    22    24   ar
    26    24    25    1
    27    24    16   ar
    28    21    26    1
    29    26    27   ar
    30    26    28   ar
    31    15    29    1
    32    29    30    1
    33    29    31    1
    34    29    32    1
    35     4    33    1
    36    33    34    1
    37    33    35    1
    38     2    36    1
    39    36    37    1
    40    36    38    1
