@<TRIPOS>MOLECULE
20_5m
 37 39 0 0 0
SMALL
USER_CHARGES
****
From 3DB ct
@<TRIPOS>ATOM
      1 C          12.4010    3.9580   12.9870 C.ar    1  LIG1       -0.6741
      2 C          11.0840    3.7940   13.5830 C.ar    1  LIG1        0.7612
      3 N          10.2390    2.8370   13.1810 N.ar    1  LIG1       -0.7186
      4 C          10.6060    1.9280   12.2470 C.ar    1  LIG1        0.8386
      5 N          11.9070    1.8940   11.7840 N.ar    1  LIG1       -0.6865
      6 C          12.7880    2.8900   12.2110 C.ar    1  LIG1        0.4994
      7 C          14.2250    2.6740   11.7630 C.3     1  LIG1       -0.1247
      8 H          14.4410    1.5930   11.7640 H       1  LIG1        0.0683
      9 H          14.3500    3.0120   10.7190 H       1  LIG1        0.0553
     10 C          15.1710    3.4520   12.6860 C.3     1  LIG1       -0.1250
     11 H          16.2010    3.3980   12.2950 H       1  LIG1        0.0363
     12 H          15.1910    3.0050   13.6960 H       1  LIG1        0.0469
     13 C          14.6660    4.9120   12.7410 C.3     1  LIG1        0.3495
     14 H          14.3610    5.1120   11.6990 H       1  LIG1       -0.0087
     15 C          13.3340    5.0670   13.5180 C.3     1  LIG1        0.0649
     16 H          13.5070    4.8860   14.5950 H       1  LIG1        0.0289
     17 H          12.9560    5.9270   13.3740 H       1  LIG1        0.0021
     18 C          15.7500    5.9080   13.1780 C.3     1  LIG1       -0.6710
     19 H          15.5670    6.3650   14.1650 H       1  LIG1        0.1609
     20 H          16.7850    5.5610   13.3140 H       1  LIG1        0.1626
     21 C          15.6400    7.0030   12.0830 C.ar    1  LIG1        0.2975
     22 C          16.8000    7.4570   11.4800 C.ar    1  LIG1       -0.0753
     23 H          17.6320    7.0430   11.6780 H       1  LIG1        0.0954
     24 C          16.7110    8.5190   10.5940 C.ar    1  LIG1       -0.1400
     25 C          15.4850    9.1280   10.3320 C.ar    1  LIG1       -0.2651
     26 C          14.3730    8.6590   10.9840 C.ar    1  LIG1        0.1366
     27 H          13.5280    9.0670   10.8350 H       1  LIG1        0.0565
     28 C          14.4370    7.6050   11.8590 C.ar    1  LIG1       -0.2377
     29 H          13.6590    7.2930   12.3060 H       1  LIG1        0.1296
     30 CL         15.3060   10.4510    9.2390 Cl      1  LIG1        0.0639
     31 CL         18.1740    9.0510    9.8400 Cl      1  LIG1        0.0578
     32 N           9.7670    1.0600   11.8040 N.pl3   1  LIG1       -0.8485
     33 H           8.9220    1.0520   12.1140 H       1  LIG1        0.3831
     34 H          10.0250    0.4620   11.1830 H       1  LIG1        0.3858
     35 N          10.6020    4.5990   14.5690 N.pl3   1  LIG1       -0.7741
     36 H          11.1060    5.2740   14.8850 H       1  LIG1        0.3360
     37 H           9.7800    4.4550   14.9060 H       1  LIG1        0.3319
@<TRIPOS>BOND
     1     1     2   ar
     2     2     3   ar
     3     3     4   ar
     4     4     5   ar
     5     5     6   ar
     6     6     1   ar
     7     6     7    1
     8     7     8    1
     9     7     9    1
    10     7    10    1
    11    10    11    1
    12    10    12    1
    13    10    13    1
    14    13    14    1
    15    13    15    1
    16    15    16    1
    17    15    17    1
    18    15     1    1
    19    13    18    1
    20    18    19    1
    21    18    20    1
    22    18    21    1
    23    21    22   ar
    24    22    23    1
    25    22    24   ar
    26    24    25   ar
    27    25    26   ar
    28    26    27    1
    29    26    28   ar
    30    28    29    1
    31    28    21   ar
    32    25    30    1
    33    24    31    1
    34     4    32    1
    35    32    33    1
    36    32    34    1
    37     2    35    1
    38    35    36    1
    39    35    37    1
