@<TRIPOS>MOLECULE
20_5g
 40 42 0 0 0
SMALL
USER_CHARGES
****
From 3DB ct
@<TRIPOS>ATOM
      1 C          12.4010    3.9580   12.9870 C.ar    1  LIG1       -0.7046
      2 C          11.0840    3.7940   13.5830 C.ar    1  LIG1        0.8095
      3 N          10.2390    2.8370   13.1810 N.ar    1  LIG1       -0.7278
      4 C          10.6060    1.9280   12.2470 C.ar    1  LIG1        0.8327
      5 N          11.9070    1.8940   11.7840 N.ar    1  LIG1       -0.6841
      6 C          12.7880    2.8900   12.2110 C.ar    1  LIG1        0.4980
      7 C          14.2250    2.6740   11.7630 C.3     1  LIG1       -0.0779
      8 H          14.4410    1.5930   11.7640 H       1  LIG1        0.0581
      9 H          14.3500    3.0120   10.7190 H       1  LIG1        0.0395
     10 C          15.1710    3.4520   12.6860 C.3     1  LIG1       -0.1269
     11 H          16.2010    3.3980   12.2950 H       1  LIG1        0.0337
     12 H          15.1910    3.0050   13.6960 H       1  LIG1        0.0513
     13 C          14.6660    4.9120   12.7410 C.3     1  LIG1        0.2673
     14 H          14.3610    5.1120   11.6990 H       1  LIG1       -0.0008
     15 C          13.3340    5.0670   13.5180 C.3     1  LIG1        0.0913
     16 H          13.5070    4.8860   14.5950 H       1  LIG1        0.0394
     17 H          12.9560    5.9270   13.3740 H       1  LIG1       -0.0071
     18 C          15.7500    5.9080   13.1780 C.3     1  LIG1       -0.5093
     19 H          15.5670    6.3650   14.1650 H       1  LIG1        0.1253
     20 H          16.7850    5.5610   13.3140 H       1  LIG1        0.1263
     21 C          15.6400    7.0030   12.0830 C.ar    1  LIG1        0.1943
     22 C          16.8000    7.4570   11.4800 C.ar    1  LIG1       -0.1107
     23 H          17.7740    6.9680   11.7000 H       1  LIG1        0.1414
     24 C          16.7110    8.5190   10.5940 C.ar    1  LIG1       -0.3237
     25 C          15.4850    9.1280   10.3320 C.ar    1  LIG1       -0.0105
     26 H          15.4340    9.8480    9.7140 H       1  LIG1        0.1127
     27 C          14.3730    8.6590   10.9840 C.ar    1  LIG1       -0.1390
     28 H          13.3910    9.1410   10.7940 H       1  LIG1        0.1211
     29 C          14.4370    7.6050   11.8590 C.ar    1  LIG1       -0.0974
     30 H          13.6590    7.2930   12.3060 H       1  LIG1        0.1085
     31 C          17.9830    9.0210    9.8840 C.3     1  LIG1        1.0603
     32 F          19.0620    8.8900   10.6420 F       1  LIG1       -0.3285
     33 F          18.2360    8.3630    8.7610 F       1  LIG1       -0.3277
     34 F          17.8980   10.3010    9.5530 F       1  LIG1       -0.3270
     35 N           9.7670    1.0600   11.8040 N.pl3   1  LIG1       -0.8367
     36 H           8.9220    1.0520   12.1140 H       1  LIG1        0.3800
     37 H          10.0250    0.4620   11.1830 H       1  LIG1        0.3793
     38 N          10.6020    4.5990   14.5690 N.pl3   1  LIG1       -0.8257
     39 H          11.1060    5.2740   14.8850 H       1  LIG1        0.3519
     40 H           9.7800    4.4550   14.9060 H       1  LIG1        0.3436
@<TRIPOS>BOND
     1     1     2   ar
     2     2     3   ar
     3     3     4   ar
     4     4     5   ar
     5     5     6   ar
     6     6     1   ar
     7     6     7    1
     8     7     8    1
     9     7     9    1
    10     7    10    1
    11    10    11    1
    12    10    12    1
    13    10    13    1
    14    13    14    1
    15    13    15    1
    16    15    16    1
    17    15    17    1
    18    15     1    1
    19    13    18    1
    20    18    19    1
    21    18    20    1
    22    18    21    1
    23    21    22   ar
    24    22    23    1
    25    22    24   ar
    26    24    25   ar
    27    25    26    1
    28    25    27   ar
    29    27    28    1
    30    27    29   ar
    31    29    30    1
    32    29    21   ar
    33    24    31    1
    34    31    32    1
    35    31    33    1
    36    31    34    1
    37     4    35    1
    38    35    36    1
    39    35    37    1
    40     2    38    1
    41    38    39    1
    42    38    40    1
