@<TRIPOS>MOLECULE
20_5d
 41 43 0 0 0
SMALL
USER_CHARGES
****
From 3DB ct
@<TRIPOS>ATOM
      1 C          12.4010    3.9580   12.9870 C.ar    1  LIG1       -0.6493
      2 C          11.0840    3.7940   13.5830 C.ar    1  LIG1        0.7669
      3 N          10.2390    2.8370   13.1810 N.ar    1  LIG1       -0.7147
      4 C          10.6060    1.9280   12.2470 C.ar    1  LIG1        0.8268
      5 N          11.9070    1.8940   11.7840 N.ar    1  LIG1       -0.6933
      6 C          12.7880    2.8900   12.2110 C.ar    1  LIG1        0.4732
      7 C          14.2250    2.6740   11.7630 C.3     1  LIG1       -0.0024
      8 H          14.4410    1.5930   11.7640 H       1  LIG1        0.0379
      9 H          14.3500    3.0120   10.7190 H       1  LIG1        0.0235
     10 C          15.1710    3.4520   12.6860 C.3     1  LIG1       -0.1882
     11 H          16.2010    3.3980   12.2950 H       1  LIG1        0.0566
     12 H          15.1910    3.0050   13.6960 H       1  LIG1        0.0619
     13 C          14.6660    4.9120   12.7410 C.3     1  LIG1        0.1887
     14 H          14.3610    5.1120   11.6990 H       1  LIG1        0.0040
     15 C          13.3340    5.0670   13.5180 C.3     1  LIG1        0.1052
     16 H          13.5070    4.8860   14.5950 H       1  LIG1        0.0275
     17 H          12.9560    5.9270   13.3740 H       1  LIG1       -0.0158
     18 C          15.7500    5.9080   13.1780 C.3     1  LIG1       -0.2379
     19 H          15.5670    6.3650   14.1650 H       1  LIG1        0.0552
     20 H          16.7850    5.5610   13.3140 H       1  LIG1        0.0742
     21 C          15.6400    7.0030   12.0830 C.ar    1  LIG1       -0.0524
     22 C          16.8000    7.4570   11.4800 C.ar    1  LIG1        0.2475
     23 O          17.9220    6.7580   11.8700 O.3     1  LIG1       -0.2601
     24 C          19.1990    7.0840   11.3560 C.3     1  LIG1        0.0174
     25 H          19.8490    6.5020   11.7320 H       1  LIG1        0.0609
     26 H          19.1950    6.9850   10.4110 H       1  LIG1        0.0430
     27 H          19.4100    7.9820   11.5800 H       1  LIG1        0.0398
     28 C          16.7110    8.5190   10.5940 C.ar    1  LIG1       -0.2351
     29 H          17.4910    8.8400   10.1580 H       1  LIG1        0.1192
     30 C          15.4850    9.1280   10.3320 C.ar    1  LIG1       -0.0661
     31 H          15.4340    9.8480    9.7140 H       1  LIG1        0.1111
     32 C          14.3730    8.6590   10.9840 C.ar    1  LIG1       -0.1763
     33 H          13.5280    9.0670   10.8350 H       1  LIG1        0.1162
     34 C          14.4370    7.6050   11.8590 C.ar    1  LIG1       -0.0771
     35 H          13.6590    7.2930   12.3060 H       1  LIG1        0.1148
     36 N           9.7670    1.0600   11.8040 N.pl3   1  LIG1       -0.8336
     37 H           8.9220    1.0520   12.1140 H       1  LIG1        0.3743
     38 H          10.0250    0.4620   11.1830 H       1  LIG1        0.3805
     39 N          10.6020    4.5990   14.5690 N.pl3   1  LIG1       -0.8172
     40 H          11.1060    5.2740   14.8850 H       1  LIG1        0.3529
     41 H           9.7800    4.4550   14.9060 H       1  LIG1        0.3405
@<TRIPOS>BOND
     1     1     2   ar
     2     2     3   ar
     3     3     4   ar
     4     4     5   ar
     5     5     6   ar
     6     6     1   ar
     7     6     7    1
     8     7     8    1
     9     7     9    1
    10     7    10    1
    11    10    11    1
    12    10    12    1
    13    10    13    1
    14    13    14    1
    15    13    15    1
    16    15    16    1
    17    15    17    1
    18    15     1    1
    19    13    18    1
    20    18    19    1
    21    18    20    1
    22    18    21    1
    23    21    22   ar
    24    22    23    1
    25    23    24    1
    26    24    25    1
    27    24    26    1
    28    24    27    1
    29    22    28   ar
    30    28    29    1
    31    28    30   ar
    32    30    31    1
    33    30    32   ar
    34    32    33    1
    35    32    34   ar
    36    34    35    1
    37    34    21   ar
    38     4    36    1
    39    36    37    1
    40    36    38    1
    41     2    39    1
    42    39    40    1
    43    39    41    1
