@<TRIPOS>MOLECULE
20_9a
 30 31 0 0 0
SMALL
USER_CHARGES
****
From 3DB ct
@<TRIPOS>ATOM
      1 C          12.2000    3.8600   13.2730 C.ar    1  LIG1       -0.5015
      2 C          10.8450    3.4660   13.6300 C.ar    1  LIG1        0.6813
      3 N          10.1440    2.5940   12.8960 N.ar    1  LIG1       -0.6818
      4 C          10.6980    1.9790   11.8240 C.ar    1  LIG1        0.7837
      5 N          12.0400    2.1470   11.5440 N.ar    1  LIG1       -0.6572
      6 C          12.7710    3.0540   12.3160 C.ar    1  LIG1        0.4232
      7 C          14.2620    3.0500   12.0220 C.3     1  LIG1       -0.0502
      8 H          14.5770    2.0210   11.7850 H       1  LIG1        0.0475
      9 H          14.4710    3.6520   11.1200 H       1  LIG1        0.0414
     10 C          15.0210    3.6230   13.2260 C.3     1  LIG1       -0.1412
     11 H          16.0900    3.7360   12.9740 H       1  LIG1        0.0385
     12 H          14.9700    2.9340   14.0880 H       1  LIG1        0.0580
     13 C          14.3780    4.9850   13.5720 C.3     1  LIG1        0.1469
     14 H          14.2050    5.4920   12.5970 H       1  LIG1        0.0264
     15 C          12.9590    4.8530   14.1790 C.3     1  LIG1       -0.0699
     16 H          13.0260    4.4130   15.1920 H       1  LIG1        0.0366
     17 H          12.5200    5.6950   14.2030 H       1  LIG1        0.0311
     18 C          15.3640    5.9040   14.3000 C.3     1  LIG1       -0.0785
     19 H          14.8670    6.7660   14.7780 H       1  LIG1        0.0206
     20 H          15.8530    5.3580   15.1230 H       1  LIG1        0.0237
     21 C          16.4640    6.4790   13.3870 C.3     1  LIG1       -0.0811
     22 H          17.0910    5.6910   12.9420 H       1  LIG1        0.0195
     23 H          16.0270    7.0670   12.5630 H       1  LIG1        0.0171
     24 H          17.1310    7.1480   13.9550 H       1  LIG1        0.0258
     25 N          10.0000    1.2030   11.0730 N.pl3   1  LIG1       -0.8095
     26 H           9.1310    1.0630   11.2570 H       1  LIG1        0.3692
     27 H          10.3810    0.8010   10.3640 H       1  LIG1        0.3734
     28 N          10.1820    3.9600   14.7110 N.pl3   1  LIG1       -0.7561
     29 H          10.5820    4.5620   15.2480 H       1  LIG1        0.3370
     30 H           9.3440    3.6840   14.8900 H       1  LIG1        0.3261
@<TRIPOS>BOND
     1     1     2   ar
     2     2     3   ar
     3     3     4   ar
     4     4     5   ar
     5     5     6   ar
     6     6     1   ar
     7     6     7    1
     8     7     8    1
     9     7     9    1
    10     7    10    1
    11    10    11    1
    12    10    12    1
    13    10    13    1
    14    13    14    1
    15    13    15    1
    16    15    16    1
    17    15    17    1
    18    15     1    1
    19    13    18    1
    20    18    19    1
    21    18    20    1
    22    18    21    1
    23    21    22    1
    24    21    23    1
    25    21    24    1
    26     4    25    1
    27    25    26    1
    28    25    27    1
    29     2    28    1
    30    28    29    1
    31    28    30    1
