@<TRIPOS>MOLECULE
21_38
 43 46 0 0 0
SMALL
USER_CHARGES
****
From 3DB ct
@<TRIPOS>ATOM
      1 N          10.1620    2.6320   12.9170 N.ar    1  LIG1       -0.6667
      2 C          10.7280    1.9500   11.9230 C.ar    1  LIG1        0.7934
      3 N          11.9920    2.1060   11.5310 N.ar    1  LIG1       -0.6315
      4 C          12.7360    3.0170   12.1840 C.ar    1  LIG1        0.2170
      5 C          12.2660    3.7970   13.2420 C.ar    1  LIG1       -0.0978
      6 C          10.9330    3.5300   13.5650 C.ar    1  LIG1        0.6341
      7 N          10.2900    4.2510   14.5650 N.pl3   1  LIG1       -0.7717
      8 H          10.8640    4.6090   15.3220 H       1  LIG1        0.3627
      9 H           9.3380    3.9850   14.7850 H       1  LIG1        0.3585
     10 N          13.0390    4.7170   13.8980 N.ar    1  LIG1       -0.4171
     11 C          14.3260    4.8900   13.4990 C.ar    1  LIG1        0.4118
     12 C          14.8630    4.1510   12.4550 C.ar    1  LIG1       -0.3037
     13 H          15.8930    4.2920   12.1370 H       1  LIG1        0.1496
     14 C          14.0540    3.2160   11.8070 C.ar    1  LIG1       -0.0273
     15 H          14.4710    2.6350   10.9870 H       1  LIG1        0.1177
     16 C          15.1720    5.9260   14.2260 C.3     1  LIG1       -0.2022
     17 H          15.4990    5.5360   15.1990 H       1  LIG1        0.0966
     18 H          14.5110    6.7760   14.4410 H       1  LIG1        0.0950
     19 N          16.3480    6.3570   13.4370 N.pl3   1  LIG1       -0.1893
     20 C          16.0170    7.1160   12.2980 C.ar    1  LIG1        0.0890
     21 C          14.7390    7.6890   12.1740 C.ar    1  LIG1       -0.1077
     22 H          13.9950    7.5610   12.9580 H       1  LIG1        0.1030
     23 C          14.3810    8.4130   11.0380 C.ar    1  LIG1       -0.1045
     24 H          13.3850    8.8450   10.9600 H       1  LIG1        0.1128
     25 C          15.2950    8.5760   10.0010 C.ar    1  LIG1       -0.2154
     26 H          14.9930    9.1440    9.1210 H       1  LIG1        0.1307
     27 C          16.5800    8.0230   10.0850 C.ar    1  LIG1        0.1583
     28 C          16.9570    7.2860   11.2380 C.ar    1  LIG1       -0.0593
     29 C          18.2710    6.7650   11.2800 C.ar    1  LIG1       -0.0411
     30 H          18.6090    6.2070   12.1530 H       1  LIG1        0.0787
     31 C          19.1700    6.9490   10.2260 C.ar    1  LIG1       -0.1608
     32 H          20.1740    6.5330   10.2900 H       1  LIG1        0.1132
     33 C          18.7800    7.6640    9.1020 C.ar    1  LIG1       -0.0435
     34 H          19.4770    7.8110    8.2790 H       1  LIG1        0.0946
     35 C          17.4950    8.1990    9.0330 C.ar    1  LIG1       -0.2206
     36 H          17.2110    8.7610    8.1430 H       1  LIG1        0.1248
     37 C          17.5910    6.0150   13.8370 C.3     1  LIG1       -0.0665
     38 H          17.5300    5.4260   14.7520 H       1  LIG1        0.0367
     39 H          18.0750    5.4260   13.0570 H       1  LIG1        0.0582
     40 H          18.1740    6.9170   14.0240 H       1  LIG1        0.0608
     41 N           9.9690    1.0350   11.2640 N.pl3   1  LIG1       -0.8202
     42 H          10.3700    0.5030   10.5070 H       1  LIG1        0.3769
     43 H           9.0070    0.8930   11.5360 H       1  LIG1        0.3731
@<TRIPOS>BOND
     1     1     2   ar
     2     2     3   ar
     3     3     4   ar
     4     4     5   ar
     5     5     6   ar
     6     6     1   ar
     7     6     7    1
     8     7     8    1
     9     7     9    1
    10     5    10   ar
    11    10    11   ar
    12    11    12   ar
    13    12    13    1
    14    12    14   ar
    15    14    15    1
    16    14     4   ar
    17    11    16    1
    18    16    17    1
    19    16    18    1
    20    16    19    1
    21    19    20    1
    22    20    21   ar
    23    21    22    1
    24    21    23   ar
    25    23    24    1
    26    23    25   ar
    27    25    26    1
    28    25    27   ar
    29    27    28   ar
    30    28    20   ar
    31    28    29   ar
    32    29    30    1
    33    29    31   ar
    34    31    32    1
    35    31    33   ar
    36    33    34    1
    37    33    35   ar
    38    35    36    1
    39    35    27   ar
    40    19    37    1
    41    37    38    1
    42    37    39    1
    43    37    40    1
    44     2    41    1
    45    41    42    1
    46    41    43    1
