@<TRIPOS>MOLECULE
21_34
 39 42 0 0 0
SMALL
USER_CHARGES
****
From 3DB ct
@<TRIPOS>ATOM
      1 N          10.1290    2.5940   12.8780 N.ar    1  LIG1       -0.6580
      2 C          10.7330    1.9250   11.8980 C.ar    1  LIG1        0.7720
      3 N          12.0000    2.1110   11.5310 N.ar    1  LIG1       -0.6282
      4 C          12.7100    3.0340   12.2040 C.ar    1  LIG1        0.2546
      5 C          12.2000    3.8040   13.2510 C.ar    1  LIG1       -0.1289
      6 C          10.8590    3.5240   13.5270 C.ar    1  LIG1        0.6430
      7 N          10.2060    4.1670   14.5730 N.pl3   1  LIG1       -0.7885
      8 H          10.5140    5.1070   14.8060 H       1  LIG1        0.3682
      9 H           9.2220    3.9560   14.6980 H       1  LIG1        0.3617
     10 N          12.9400    4.7380   13.9260 N.ar    1  LIG1       -0.3541
     11 C          14.2340    4.9270   13.5650 C.ar    1  LIG1        0.3119
     12 C          14.8110    4.2010   12.5330 C.ar    1  LIG1       -0.2790
     13 H          15.8490    4.3550   12.2500 H       1  LIG1        0.1626
     14 C          14.0350    3.2560   11.8610 C.ar    1  LIG1       -0.0473
     15 H          14.4830    2.6810   11.0530 H       1  LIG1        0.1167
     16 C          15.0440    5.9420   14.3380 C.3     1  LIG1       -0.2428
     17 H          15.1640    5.5950   15.3710 H       1  LIG1        0.1241
     18 H          14.5040    6.8950   14.3720 H       1  LIG1        0.0885
     19 S          16.7000    6.1820   13.5960 S.3     1  LIG1       -0.0299
     20 C          16.2130    7.1650   12.1710 C.ar    1  LIG1       -0.0786
     21 C          14.8870    7.6210   12.1570 C.ar    1  LIG1       -0.1437
     22 H          14.2060    7.3820   12.9730 H       1  LIG1        0.1361
     23 C          14.4140    8.3850   11.0950 C.ar    1  LIG1       -0.0474
     24 H          13.3830    8.7320   11.0890 H       1  LIG1        0.0952
     25 C          15.2640    8.7040   10.0400 C.ar    1  LIG1       -0.2020
     26 H          14.8720    9.3020    9.2170 H       1  LIG1        0.1293
     27 C          16.5990    8.2710   10.0310 C.ar    1  LIG1        0.1065
     28 C          17.1000    7.4930   11.1070 C.ar    1  LIG1        0.0897
     29 C          18.4600    7.0960   11.0460 C.ar    1  LIG1       -0.1078
     30 H          18.9050    6.5070   11.8460 H       1  LIG1        0.0954
     31 C          19.2800    7.4430    9.9700 C.ar    1  LIG1       -0.1347
     32 H          20.3200    7.1210    9.9530 H       1  LIG1        0.1187
     33 C          18.7680    8.1990    8.9250 C.ar    1  LIG1       -0.0694
     34 H          19.4040    8.4720    8.0840 H       1  LIG1        0.1041
     35 C          17.4370    8.6110    8.9570 C.ar    1  LIG1       -0.2089
     36 H          17.0570    9.2070    8.1270 H       1  LIG1        0.1313
     37 N          10.0110    0.9880   11.2270 N.pl3   1  LIG1       -0.8024
     38 H          10.4430    0.4620   10.4820 H       1  LIG1        0.3746
     39 H           9.0490    0.8190   11.4830 H       1  LIG1        0.3675
@<TRIPOS>BOND
     1     1     2   ar
     2     2     3   ar
     3     3     4   ar
     4     4     5   ar
     5     5     6   ar
     6     6     1   ar
     7     6     7    1
     8     7     8    1
     9     7     9    1
    10     5    10   ar
    11    10    11   ar
    12    11    12   ar
    13    12    13    1
    14    12    14   ar
    15    14    15    1
    16    14     4   ar
    17    11    16    1
    18    16    17    1
    19    16    18    1
    20    16    19    1
    21    19    20    1
    22    20    21   ar
    23    21    22    1
    24    21    23   ar
    25    23    24    1
    26    23    25   ar
    27    25    26    1
    28    25    27   ar
    29    27    28   ar
    30    28    20   ar
    31    28    29   ar
    32    29    30    1
    33    29    31   ar
    34    31    32    1
    35    31    33   ar
    36    33    34    1
    37    33    35   ar
    38    35    36    1
    39    35    27   ar
    40     2    37    1
    41    37    38    1
    42    37    39    1
