@<TRIPOS>MOLECULE
22_12
 35 37 0 0 0
SMALL
USER_CHARGES
****
From 3DB ct
@<TRIPOS>ATOM
      1 N          10.2240    2.6330   13.1460 N.ar    1  LIG1       -0.6685
      2 C          10.6640    1.6210   12.4000 C.ar    1  LIG1        0.8018
      3 N          11.8730    1.5710   11.8430 N.ar    1  LIG1       -0.6378
      4 C          12.6940    2.6160   12.0520 C.ar    1  LIG1        0.2317
      5 C          12.3600    3.7350   12.8140 C.ar    1  LIG1       -0.1437
      6 C          11.0730    3.6610   13.3510 C.ar    1  LIG1        0.6431
      7 N          10.5570    4.7160   14.0960 N.pl3   1  LIG1       -0.7597
      8 H          11.2180    5.2830   14.6190 H       1  LIG1        0.3551
      9 H           9.6350    4.5880   14.4960 H       1  LIG1        0.3536
     10 N          13.2090    4.7900   13.0180 N.ar    1  LIG1       -0.4203
     11 C          14.4380    4.7650   12.4660 C.ar    1  LIG1        0.6346
     12 C          14.8330    3.6860   11.6860 C.ar    1  LIG1       -0.3857
     13 H          15.8160    3.6630   11.2230 H       1  LIG1        0.1613
     14 C          13.9570    2.6170   11.4890 C.ar    1  LIG1       -0.0078
     15 H          14.2760    1.7750   10.8790 H       1  LIG1        0.1209
     16 N          15.3330    5.8360   12.6270 N.pl3   1  LIG1       -0.7397
     17 H          15.8640    5.7770   13.4950 H       1  LIG1        0.3397
     18 C          15.4820    7.0510   11.9380 C.ar    1  LIG1        0.3708
     19 C          14.4300    7.9350   11.6860 C.ar    1  LIG1       -0.1729
     20 H          13.4190    7.7140   12.0180 H       1  LIG1        0.1495
     21 C          14.6420    9.1290   10.9820 C.ar    1  LIG1       -0.2274
     22 H          13.7990    9.7950   10.8040 H       1  LIG1        0.1440
     23 C          15.9100    9.4640   10.5090 C.ar    1  LIG1        0.2612
     24 C          16.9670    8.5900   10.7440 C.ar    1  LIG1       -0.1722
     25 H          17.9760    8.7970   10.3960 H       1  LIG1        0.1198
     26 C          16.7500    7.3970   11.4480 C.ar    1  LIG1       -0.2757
     27 H          17.6000    6.7350   11.6130 H       1  LIG1        0.1401
     28 O          15.9810   10.6540    9.8400 O.3     1  LIG1       -0.3109
     29 C          17.2630   11.0330    9.3400 C.3     1  LIG1        0.0795
     30 H          17.1510   11.9990    8.8390 H       1  LIG1        0.0520
     31 H          17.6250   10.3120    8.6000 H       1  LIG1        0.0213
     32 H          17.9810   11.1610   10.1570 H       1  LIG1        0.0211
     33 N           9.8260    0.5720   12.1900 N.pl3   1  LIG1       -0.8351
     34 H          10.1310   -0.2090   11.6270 H       1  LIG1        0.3805
     35 H           8.9020    0.5790   12.5970 H       1  LIG1        0.3759
@<TRIPOS>BOND
     1     1     2   ar
     2     2     3   ar
     3     3     4   ar
     4     4     5   ar
     5     5     6   ar
     6     6     1   ar
     7     6     7    1
     8     7     8    1
     9     7     9    1
    10     5    10   ar
    11    10    11   ar
    12    11    12   ar
    13    12    13    1
    14    12    14   ar
    15    14    15    1
    16    14     4   ar
    17    11    16    1
    18    16    17    1
    19    16    18    1
    20    18    19   ar
    21    19    20    1
    22    19    21   ar
    23    21    22    1
    24    21    23   ar
    25    23    24   ar
    26    24    25    1
    27    24    26   ar
    28    26    27    1
    29    26    18   ar
    30    23    28    1
    31    28    29    1
    32    29    30    1
    33    29    31    1
    34    29    32    1
    35     2    33    1
    36    33    34    1
    37    33    35    1
