@<TRIPOS>MOLECULE
22_10
 31 33 0 0 0
SMALL
USER_CHARGES
****
From 3DB ct
@<TRIPOS>ATOM
      1 N          10.2480    2.6850   13.1180 N.ar    1  LIG1       -0.6691
      2 C          10.6710    1.6900   12.3410 C.ar    1  LIG1        0.7951
      3 N          11.8740    1.6440   11.7710 N.ar    1  LIG1       -0.6326
      4 C          12.7070    2.6760   12.0010 C.ar    1  LIG1        0.2288
      5 C          12.3900    3.7770   12.7950 C.ar    1  LIG1       -0.1387
      6 C          11.1080    3.7000   13.3430 C.ar    1  LIG1        0.6458
      7 N          10.6090    4.7390   14.1210 N.pl3   1  LIG1       -0.7568
      8 H          11.2800    5.2860   14.6510 H       1  LIG1        0.3538
      9 H           9.6890    4.6090   14.5260 H       1  LIG1        0.3525
     10 N          13.2520    4.8170   13.0190 N.ar    1  LIG1       -0.4371
     11 C          14.4750    4.7970   12.4550 C.ar    1  LIG1        0.6785
     12 C          14.8520    3.7360   11.6430 C.ar    1  LIG1       -0.3922
     13 H          15.8310    3.7160   11.1710 H       1  LIG1        0.1665
     14 C          13.9640    2.6800   11.4250 C.ar    1  LIG1       -0.0145
     15 H          14.2700    1.8520   10.7900 H       1  LIG1        0.1230
     16 N          15.3820    5.8540   12.6370 N.pl3   1  LIG1       -0.8170
     17 H          15.9180    5.7690   13.4990 H       1  LIG1        0.3498
     18 C          15.5370    7.0860   11.9780 C.ar    1  LIG1        0.5191
     19 C          14.4870    7.9820   11.7480 C.ar    1  LIG1       -0.3097
     20 H          13.4760    7.7540   12.0760 H       1  LIG1        0.1585
     21 C          14.7000    9.1920   11.0770 C.ar    1  LIG1       -0.0201
     22 H          13.8670    9.8720   10.9110 H       1  LIG1        0.0978
     23 C          15.9710    9.5240   10.6170 C.ar    1  LIG1       -0.1953
     24 H          16.1360   10.4640   10.0950 H       1  LIG1        0.1115
     25 C          17.0280    8.6440   10.8260 C.ar    1  LIG1       -0.0192
     26 H          18.0250    8.8930   10.4680 H       1  LIG1        0.0991
     27 C          16.8100    7.4360   11.4980 C.ar    1  LIG1       -0.3350
     28 H          17.6560    6.7660   11.6460 H       1  LIG1        0.1335
     29 N           9.8220    0.6540   12.1110 N.pl3   1  LIG1       -0.8294
     30 H          10.1140   -0.1140   11.5250 H       1  LIG1        0.3783
     31 H           8.9020    0.6590   12.5270 H       1  LIG1        0.3751
@<TRIPOS>BOND
     1     1     2   ar
     2     2     3   ar
     3     3     4   ar
     4     4     5   ar
     5     5     6   ar
     6     6     1   ar
     7     6     7    1
     8     7     8    1
     9     7     9    1
    10     5    10   ar
    11    10    11   ar
    12    11    12   ar
    13    12    13    1
    14    12    14   ar
    15    14    15    1
    16    14     4   ar
    17    11    16    1
    18    16    17    1
    19    16    18    1
    20    18    19   ar
    21    19    20    1
    22    19    21   ar
    23    21    22    1
    24    21    23   ar
    25    23    24    1
    26    23    25   ar
    27    25    26    1
    28    25    27   ar
    29    27    28    1
    30    27    18   ar
    31     2    29    1
    32    29    30    1
    33    29    31    1
