@<TRIPOS>MOLECULE
24_2d
 45 47 0 0 0
SMALL
USER_CHARGES
****
From 3DB ct
@<TRIPOS>ATOM
      1 N          10.1320    2.6280   12.8070 N.ar    1  LIG1       -0.7101
      2 C          10.8050    1.9700   11.8760 C.ar    1  LIG1        0.8025
      3 N          12.0850    2.1700   11.6040 N.ar    1  LIG1       -0.6982
      4 C          12.7390    3.0830   12.3020 C.ar    1  LIG1        0.8320
      5 C          12.1600    3.8560   13.3150 C.ar    1  LIG1       -0.8519
      6 C          10.7940    3.5550   13.5160 C.ar    1  LIG1        0.8156
      7 N          10.0040    4.1850   14.4670 N.pl3   1  LIG1       -0.7543
      8 H          10.2810    4.0190   15.4310 H       1  LIG1        0.3206
      9 H           9.8520    5.1770   14.3070 H       1  LIG1        0.3243
     10 C          13.0050    4.8210   13.9930 C.ar    1  LIG1        0.4694
     11 C          14.3580    4.9330   13.6180 C.ar    1  LIG1       -0.4178
     12 C          14.7920    4.1090   12.5930 C.ar    1  LIG1        0.3976
     13 H          15.8220    4.1500   12.2390 H       1  LIG1        0.0828
     14 N          14.0150    3.2080   11.9530 N.ar    1  LIG1       -0.5947
     15 C          15.3500    5.8940   14.2320 C.3     1  LIG1        0.1065
     16 H          15.8510    5.4150   15.0830 H       1  LIG1        0.0635
     17 H          14.8170    6.7610   14.6390 H       1  LIG1        0.0634
     18 N          16.3380    6.2900   13.2440 N.pl3   1  LIG1       -0.5646
     19 H          17.2850    5.9360   13.3670 H       1  LIG1        0.3211
     20 C          16.0730    7.0890   12.1510 C.ar    1  LIG1        0.2767
     21 C          14.7890    7.6330   12.0060 C.ar    1  LIG1       -0.2189
     22 H          14.0200    7.4210   12.7480 H       1  LIG1        0.1263
     23 C          14.4610    8.4600   10.9240 C.ar    1  LIG1       -0.1177
     24 H          13.4560    8.8690   10.8500 H       1  LIG1        0.1333
     25 C          15.4190    8.7690    9.9620 C.ar    1  LIG1        0.0724
     26 C          16.6870    8.1940   10.0640 C.ar    1  LIG1        0.2188
     27 C          17.0170    7.3850   11.1610 C.ar    1  LIG1       -0.3555
     28 H          18.0260    6.9830   11.2170 H       1  LIG1        0.1317
     29 O          17.6590    8.4180    9.1230 O.3     1  LIG1       -0.2393
     30 C          18.8550    7.7180    9.4870 C.3     1  LIG1       -0.0199
     31 H          19.6000    7.9050    8.7070 H       1  LIG1        0.0652
     32 H          18.6830    6.6370    9.5390 H       1  LIG1        0.0575
     33 H          19.2560    8.0890   10.4360 H       1  LIG1        0.0499
     34 O          14.9980    9.5830    8.9450 O.3     1  LIG1       -0.2849
     35 C          15.9700    9.7730    7.9150 C.3     1  LIG1        0.1022
     36 H          15.7910   10.7560    7.4690 H       1  LIG1        0.0295
     37 H          15.8390    9.0240    7.1280 H       1  LIG1        0.0268
     38 H          16.9970    9.7610    8.2980 H       1  LIG1        0.0177
     39 C          12.4510    5.7000   15.0880 C.3     1  LIG1       -0.2104
     40 H          13.1830    6.3970   15.5020 H       1  LIG1        0.0457
     41 H          12.1050    5.0890   15.9270 H       1  LIG1        0.0739
     42 H          11.6360    6.3200   14.7010 H       1  LIG1        0.0651
     43 N          10.1390    1.0290   11.1520 N.pl3   1  LIG1       -0.8037
     44 H          10.6230    0.5100   10.4350 H       1  LIG1        0.3776
     45 H           9.1620    0.8560   11.3380 H       1  LIG1        0.3721
@<TRIPOS>BOND
     1     1     2   ar
     2     2     3   ar
     3     3     4   ar
     4     4     5   ar
     5     5     6   ar
     6     6     1   ar
     7     6     7    1
     8     7     8    1
     9     7     9    1
    10     5    10   ar
    11    10    11   ar
    12    11    12   ar
    13    12    13    1
    14    12    14   ar
    15    14     4   ar
    16    11    15    1
    17    15    16    1
    18    15    17    1
    19    15    18    1
    20    18    19    1
    21    18    20    1
    22    20    21   ar
    23    21    22    1
    24    21    23   ar
    25    23    24    1
    26    23    25   ar
    27    25    26   ar
    28    26    27   ar
    29    27    28    1
    30    27    20   ar
    31    26    29    1
    32    29    30    1
    33    30    31    1
    34    30    32    1
    35    30    33    1
    36    25    34    1
    37    34    35    1
    38    35    36    1
    39    35    37    1
    40    35    38    1
    41    10    39    1
    42    39    40    1
    43    39    41    1
    44    39    42    1
    45     2    43    1
    46    43    44    1
    47    43    45    1
