@<TRIPOS>MOLECULE
24_2a
 45 47 0 0 0
SMALL
USER_CHARGES
****
From 3DB ct
@<TRIPOS>ATOM
      1 N          10.1210    2.6090   12.8030 N.ar    1  LIG1       -0.7118
      2 C          10.8030    1.9560   11.8750 C.ar    1  LIG1        0.8003
      3 N          12.0820    2.1670   11.6060 N.ar    1  LIG1       -0.6968
      4 C          12.7260    3.0870   12.3030 C.ar    1  LIG1        0.8246
      5 C          12.1370    3.8560   13.3140 C.ar    1  LIG1       -0.8397
      6 C          10.7740    3.5440   13.5120 C.ar    1  LIG1        0.8135
      7 N           9.9750    4.1680   14.4590 N.pl3   1  LIG1       -0.7520
      8 H          10.2490    4.0060   15.4250 H       1  LIG1        0.3195
      9 H           9.8160    5.1600   14.2980 H       1  LIG1        0.3233
     10 C          12.9720    4.8290   13.9940 C.ar    1  LIG1        0.4442
     11 C          14.3250    4.9530   13.6210 C.ar    1  LIG1       -0.3991
     12 C          14.7690    4.1310   12.5980 C.ar    1  LIG1        0.3982
     13 H          15.7980    4.1810   12.2450 H       1  LIG1        0.0835
     14 N          14.0020    3.2230   11.9570 N.ar    1  LIG1       -0.5941
     15 C          15.3090    5.9240   14.2380 C.3     1  LIG1        0.1285
     16 H          15.7960    5.4480   15.0980 H       1  LIG1        0.0572
     17 H          14.7590    6.7910   14.6200 H       1  LIG1        0.0675
     18 N          16.3080    6.3070   13.2570 N.pl3   1  LIG1       -0.5172
     19 H          17.2470    5.9420   13.4050 H       1  LIG1        0.2987
     20 C          16.0990    7.1110   12.1440 C.ar    1  LIG1        0.2129
     21 C          14.8030    7.6440   11.9870 C.ar    1  LIG1       -0.3488
     22 H          14.0360    7.4040   12.7240 H       1  LIG1        0.1489
     23 C          14.4550    8.4780   10.9200 C.ar    1  LIG1        0.3500
     24 C          15.4200    8.7950    9.9740 C.ar    1  LIG1       -0.3071
     25 H          15.2060    9.4370    9.1240 H       1  LIG1        0.1358
     26 C          16.7150    8.2830   10.0990 C.ar    1  LIG1       -0.1201
     27 H          17.4320    8.5640    9.3310 H       1  LIG1        0.1275
     28 C          17.0670    7.4460   11.1700 C.ar    1  LIG1        0.0655
     29 O          18.3260    6.9220   11.3230 O.3     1  LIG1       -0.2471
     30 C          19.3300    7.2990   10.3850 C.3     1  LIG1       -0.0108
     31 H          20.2520    6.7760   10.6580 H       1  LIG1        0.0661
     32 H          19.5320    8.3740   10.4350 H       1  LIG1        0.0423
     33 H          19.0590    6.9880    9.3700 H       1  LIG1        0.0491
     34 O          13.1570    8.9070   10.9220 O.3     1  LIG1       -0.3051
     35 C          12.7600    9.7570    9.8460 C.3     1  LIG1        0.0559
     36 H          11.7070   10.0120    9.9960 H       1  LIG1        0.0562
     37 H          12.8440    9.2390    8.8850 H       1  LIG1        0.0300
     38 H          13.3340   10.6890    9.8480 H       1  LIG1        0.0281
     39 C          12.4070    5.7030   15.0880 C.3     1  LIG1       -0.1908
     40 H          12.0610    5.0880   15.9240 H       1  LIG1        0.0694
     41 H          11.5920    6.3180   14.6980 H       1  LIG1        0.0629
     42 H          13.1340    6.4020   15.5080 H       1  LIG1        0.0363
     43 N          10.1480    1.0070   11.1520 N.pl3   1  LIG1       -0.8036
     44 H          10.6380    0.4910   10.4370 H       1  LIG1        0.3765
     45 H           9.1720    0.8240   11.3370 H       1  LIG1        0.3715
@<TRIPOS>BOND
     1     1     2   ar
     2     2     3   ar
     3     3     4   ar
     4     4     5   ar
     5     5     6   ar
     6     6     1   ar
     7     6     7    1
     8     7     8    1
     9     7     9    1
    10     5    10   ar
    11    10    11   ar
    12    11    12   ar
    13    12    13    1
    14    12    14   ar
    15    14     4   ar
    16    11    15    1
    17    15    16    1
    18    15    17    1
    19    15    18    1
    20    18    19    1
    21    18    20    1
    22    20    21   ar
    23    21    22    1
    24    21    23   ar
    25    23    24   ar
    26    24    25    1
    27    24    26   ar
    28    26    27    1
    29    26    28   ar
    30    28    20   ar
    31    28    29    1
    32    29    30    1
    33    30    31    1
    34    30    32    1
    35    30    33    1
    36    23    34    1
    37    34    35    1
    38    35    36    1
    39    35    37    1
    40    35    38    1
    41    10    39    1
    42    39    40    1
    43    39    41    1
    44    39    42    1
    45     2    43    1
    46    43    44    1
    47    43    45    1
