@<TRIPOS>MOLECULE
25_12
 49 51 0 0 0
SMALL
USER_CHARGES
****
From 3DB ct
@<TRIPOS>ATOM
      1 N          10.1840    2.7320   12.8250 N.ar    1  LIG1       -0.6812
      2 C          10.7920    2.0670   11.8460 C.ar    1  LIG1        0.7889
      3 N          12.0770    2.1970   11.5300 N.ar    1  LIG1       -0.7078
      4 C          12.8040    3.0560   12.2280 C.ar    1  LIG1        0.7979
      5 C          12.2780    3.8070   13.2720 C.ar    1  LIG1       -0.7269
      6 C          10.9280    3.5800   13.5460 C.ar    1  LIG1        0.7470
      7 N          10.2470    4.2650   14.5360 N.pl3   1  LIG1       -0.7628
      8 H          10.7200    4.4400   15.4170 H       1  LIG1        0.3379
      9 H           9.2660    4.0180   14.6310 H       1  LIG1        0.3265
     10 C          13.1260    4.7190   13.9590 C.ar    1  LIG1        0.1611
     11 H          12.7010    5.2840   14.7840 H       1  LIG1        0.0698
     12 C          14.4700    4.8700   13.6190 C.ar    1  LIG1       -0.1054
     13 C          14.8720    4.0510   12.5640 C.ar    1  LIG1        0.3041
     14 H          15.8950    4.0820   12.1940 H       1  LIG1        0.0710
     15 N          14.0840    3.1730   11.8820 N.ar    1  LIG1       -0.5437
     16 N          15.3260    5.7440   14.2690 N.pl3   1  LIG1       -0.2920
     17 C          16.4090    6.4560   13.5700 C.3     1  LIG1        0.0201
     18 H          17.1970    5.7370   13.3160 H       1  LIG1        0.0511
     19 H          16.8700    7.2310   14.1940 H       1  LIG1        0.0819
     20 C          15.9120    7.1750   12.3280 C.ar    1  LIG1        0.0333
     21 C          16.8050    7.5120   11.3020 C.ar    1  LIG1       -0.3030
     22 H          17.8580    7.2460   11.3780 H       1  LIG1        0.1591
     23 C          16.3480    8.1950   10.1770 C.ar    1  LIG1        0.2691
     24 C          14.9900    8.5070   10.0410 C.ar    1  LIG1       -0.0927
     25 C          14.0850    8.2050   11.0690 C.ar    1  LIG1        0.2279
     26 C          14.5550    7.5420   12.2090 C.ar    1  LIG1       -0.2053
     27 H          13.8880    7.2850   13.0290 H       1  LIG1        0.1498
     28 O          12.7860    8.5930   10.8630 O.3     1  LIG1       -0.2940
     29 C          12.4910    9.2410    9.6280 C.3     1  LIG1        0.0856
     30 H          11.4280    9.5030    9.6360 H       1  LIG1        0.0352
     31 H          12.6630    8.5690    8.7810 H       1  LIG1        0.0359
     32 H          13.0620   10.1690    9.5240 H       1  LIG1        0.0338
     33 O          14.5550    9.1740    8.9190 O.3     1  LIG1       -0.1974
     34 C          15.6360    9.3110    7.9890 C.3     1  LIG1       -0.0460
     35 H          15.2530    9.8320    7.1070 H       1  LIG1        0.0642
     36 H          16.0120    8.3320    7.6700 H       1  LIG1        0.0606
     37 H          16.4490    9.9110    8.4120 H       1  LIG1        0.0578
     38 O          17.2420    8.4880    9.1790 O.3     1  LIG1       -0.2180
     39 C          18.5560    8.0690    9.5660 C.3     1  LIG1       -0.0657
     40 H          19.2400    8.3280    8.7520 H       1  LIG1        0.0879
     41 H          18.5950    6.9840    9.7110 H       1  LIG1        0.0575
     42 H          18.8900    8.5880   10.4700 H       1  LIG1        0.0567
     43 C          15.0470    6.1170   15.6600 C.3     1  LIG1       -0.0364
     44 H          13.9780    6.3090   15.8110 H       1  LIG1        0.0494
     45 H          15.5670    7.0370   15.9460 H       1  LIG1        0.0728
     46 H          15.3680    5.3220   16.3410 H       1  LIG1        0.0455
     47 N          10.0460    1.1920   11.1190 N.pl3   1  LIG1       -0.8069
     48 H          10.4710    0.6670   10.3690 H       1  LIG1        0.3786
     49 H           9.0670    1.0720   11.3350 H       1  LIG1        0.3673
@<TRIPOS>BOND
     1     1     2   ar
     2     2     3   ar
     3     3     4   ar
     4     4     5   ar
     5     5     6   ar
     6     6     1   ar
     7     6     7    1
     8     7     8    1
     9     7     9    1
    10     5    10   ar
    11    10    11    1
    12    10    12   ar
    13    12    13   ar
    14    13    14    1
    15    13    15   ar
    16    15     4   ar
    17    12    16    1
    18    16    17    1
    19    17    18    1
    20    17    19    1
    21    17    20    1
    22    20    21   ar
    23    21    22    1
    24    21    23   ar
    25    23    24   ar
    26    24    25   ar
    27    25    26   ar
    28    26    27    1
    29    26    20   ar
    30    25    28    1
    31    28    29    1
    32    29    30    1
    33    29    31    1
    34    29    32    1
    35    24    33    1
    36    33    34    1
    37    34    35    1
    38    34    36    1
    39    34    37    1
    40    23    38    1
    41    38    39    1
    42    39    40    1
    43    39    41    1
    44    39    42    1
    45    16    43    1
    46    43    44    1
    47    43    45    1
    48    43    46    1
    49     2    47    1
    50    47    48    1
    51    47    49    1
