@<TRIPOS>MOLECULE
25_22
 45 47 0 0 0
SMALL
USER_CHARGES
****
From 3DB ct
@<TRIPOS>ATOM
      1 N          10.1600    2.6830   12.8190 N.ar    1  LIG1       -0.6753
      2 C          10.7930    2.0200   11.8540 C.ar    1  LIG1        0.7782
      3 N          12.0770    2.1770   11.5470 N.ar    1  LIG1       -0.7070
      4 C          12.7770    3.0620   12.2400 C.ar    1  LIG1        0.8100
      5 C          12.2250    3.8120   13.2710 C.ar    1  LIG1       -0.7255
      6 C          10.8780    3.5580   13.5340 C.ar    1  LIG1        0.7365
      7 N          10.1730    4.2430   14.5080 N.pl3   1  LIG1       -0.7609
      8 H          10.6370    4.4500   15.3870 H       1  LIG1        0.3378
      9 H           9.1970    3.9770   14.6040 H       1  LIG1        0.3250
     10 C          13.0460    4.7540   13.9510 C.ar    1  LIG1        0.1707
     11 H          12.6020    5.3140   14.7700 H       1  LIG1        0.0650
     12 C          14.3850    4.9460   13.6110 C.ar    1  LIG1       -0.1459
     13 C          14.8170    4.1140   12.5780 C.ar    1  LIG1        0.3147
     14 H          15.8410    4.1570   12.2130 H       1  LIG1        0.0829
     15 N          14.0560    3.2050   11.9040 N.ar    1  LIG1       -0.5557
     16 N          15.2050    5.8560   14.2610 N.pl3   1  LIG1       -0.2190
     17 C          16.3570    6.4850   13.5810 C.3     1  LIG1       -0.0018
     18 H          17.1420    5.7730   13.3030 H       1  LIG1        0.0513
     19 H          16.8350    7.1560   14.3040 H       1  LIG1        0.0830
     20 C          15.9380    7.2320   12.3260 C.ar    1  LIG1       -0.1000
     21 C          14.5840    7.5850   12.1480 C.ar    1  LIG1       -0.1532
     22 H          13.8590    7.3410   12.9240 H       1  LIG1        0.1292
     23 C          14.1470    8.2470   10.9990 C.ar    1  LIG1        0.2303
     24 C          15.0710    8.5530   10.0040 C.ar    1  LIG1       -0.1851
     25 H          14.7820    9.0600    9.0870 H       1  LIG1        0.1299
     26 C          16.4180    8.2050   10.1600 C.ar    1  LIG1       -0.2251
     27 H          17.0970    8.4640    9.3510 H       1  LIG1        0.1367
     28 C          16.8600    7.5420   11.3100 C.ar    1  LIG1        0.2217
     29 O          18.1560    7.1600   11.5290 O.3     1  LIG1       -0.2424
     30 C          19.1220    7.4920   10.5340 C.3     1  LIG1        0.0026
     31 H          20.0950    7.1330   10.8830 H       1  LIG1        0.0652
     32 H          19.1970    8.5760   10.3990 H       1  LIG1        0.0390
     33 H          18.9010    6.9860    9.5880 H       1  LIG1        0.0493
     34 O          12.8100    8.5300   10.9680 O.3     1  LIG1       -0.2921
     35 C          12.3200    9.1920    9.8030 C.3     1  LIG1        0.0633
     36 H          11.2460    9.3550    9.9380 H       1  LIG1        0.0554
     37 H          12.4540    8.5700    8.9120 H       1  LIG1        0.0315
     38 H          12.7920   10.1720    9.6780 H       1  LIG1        0.0246
     39 C          15.2230    5.9140   15.7270 C.3     1  LIG1       -0.0525
     40 H          15.7800    6.7860   16.0870 H       1  LIG1        0.0773
     41 H          15.7060    5.0220   16.1410 H       1  LIG1        0.0395
     42 H          14.2080    5.9990   16.1290 H       1  LIG1        0.0522
     43 N          10.0790    1.1150   11.1320 N.pl3   1  LIG1       -0.8030
     44 H          10.5350    0.5790   10.4080 H       1  LIG1        0.3769
     45 H           9.1050    0.9600   11.3450 H       1  LIG1        0.3648
@<TRIPOS>BOND
     1     1     2   ar
     2     2     3   ar
     3     3     4   ar
     4     4     5   ar
     5     5     6   ar
     6     6     1   ar
     7     6     7    1
     8     7     8    1
     9     7     9    1
    10     5    10   ar
    11    10    11    1
    12    10    12   ar
    13    12    13   ar
    14    13    14    1
    15    13    15   ar
    16    15     4   ar
    17    12    16    1
    18    16    17    1
    19    17    18    1
    20    17    19    1
    21    17    20    1
    22    20    21   ar
    23    21    22    1
    24    21    23   ar
    25    23    24   ar
    26    24    25    1
    27    24    26   ar
    28    26    27    1
    29    26    28   ar
    30    28    20   ar
    31    28    29    1
    32    29    30    1
    33    30    31    1
    34    30    32    1
    35    30    33    1
    36    23    34    1
    37    34    35    1
    38    35    36    1
    39    35    37    1
    40    35    38    1
    41    16    39    1
    42    39    40    1
    43    39    41    1
    44    39    42    1
    45     2    43    1
    46    43    44    1
    47    43    45    1
