@<TRIPOS>MOLECULE
27_13
 44 46 0 0 0
SMALL
USER_CHARGES
****
From 3DB ct
@<TRIPOS>ATOM
      1 N          10.1160    2.6680   12.7700 N.ar    1  LIG1       -0.7176
      2 C          10.7920    1.9960   11.8520 C.ar    1  LIG1        0.8176
      3 N          12.0820    2.1630   11.6110 N.ar    1  LIG1       -0.7055
      4 C          12.7450    3.0500   12.3310 C.ar    1  LIG1        0.8382
      5 C          12.1700    3.8240   13.3460 C.ar    1  LIG1       -0.8793
      6 C          10.7870    3.5720   13.5000 C.ar    1  LIG1        0.8257
      7 N           9.9890    4.2260   14.4270 N.pl3   1  LIG1       -0.7539
      8 H           9.9370    5.2360   14.3140 H       1  LIG1        0.3222
      9 H          10.1740    3.9850   15.3970 H       1  LIG1        0.3209
     10 C          13.0330    4.7480   14.0620 C.ar    1  LIG1        0.5067
     11 C          14.3790    4.8810   13.6680 C.ar    1  LIG1       -0.4128
     12 C          14.8080    4.0440   12.6490 C.ar    1  LIG1        0.4028
     13 H          15.8390    4.0740   12.2960 H       1  LIG1        0.0777
     14 N          14.0290    3.1480   12.0040 N.ar    1  LIG1       -0.5921
     15 C          15.3780    5.8720   14.2370 C.3     1  LIG1       -0.0526
     16 H          15.9150    5.4020   15.0720 H       1  LIG1        0.1020
     17 H          14.8580    6.7090   14.7120 H       1  LIG1        0.0821
     18 N          16.3670    6.2890   13.2250 N.pl3   1  LIG1       -0.2050
     19 C          16.0250    7.1110   12.1590 C.ar    1  LIG1        0.2334
     20 C          14.7390    7.6600   12.0350 C.ar    1  LIG1       -0.3101
     21 H          13.9780    7.4740   12.7910 H       1  LIG1        0.1181
     22 C          14.3920    8.4850   10.9610 C.ar    1  LIG1        0.0551
     23 H          13.3890    8.9020   10.8980 H       1  LIG1        0.0953
     24 C          15.3310    8.7750    9.9770 C.ar    1  LIG1       -0.3436
     25 H          15.0560    9.4190    9.1440 H       1  LIG1        0.1444
     26 C          16.6140    8.2390   10.0580 C.ar    1  LIG1        0.3628
     27 C          16.9470    7.4090   11.1370 C.ar    1  LIG1       -0.3295
     28 H          17.9320    6.9550   11.1810 H       1  LIG1        0.1210
     29 O          17.4440    8.5880    9.0270 O.3     1  LIG1       -0.3038
     30 C          18.7710    8.0650    9.0620 C.3     1  LIG1        0.0535
     31 H          19.3130    8.4760    8.2050 H       1  LIG1        0.0590
     32 H          18.7650    6.9750    8.9630 H       1  LIG1        0.0301
     33 H          19.2960    8.3790    9.9710 H       1  LIG1        0.0273
     34 C          17.6540    5.5920   13.2140 C.3     1  LIG1       -0.1001
     35 H          18.4580    6.2470   12.8600 H       1  LIG1        0.0551
     36 H          17.6120    4.7010   12.5780 H       1  LIG1        0.0672
     37 H          17.9330    5.2730   14.2250 H       1  LIG1        0.0792
     38 C          12.4910    5.5640   15.2100 C.3     1  LIG1       -0.2361
     39 H          13.2710    6.0470   15.7970 H       1  LIG1        0.0557
     40 H          11.9760    4.9200   15.9270 H       1  LIG1        0.0770
     41 H          11.8190    6.3430   14.8410 H       1  LIG1        0.0712
     42 N          10.1180    1.0770   11.1080 N.pl3   1  LIG1       -0.8154
     43 H          10.6070    0.5470   10.4020 H       1  LIG1        0.3806
     44 H           9.1340    0.9230   11.2740 H       1  LIG1        0.3754
@<TRIPOS>BOND
     1     1     2   ar
     2     2     3   ar
     3     3     4   ar
     4     4     5   ar
     5     5     6   ar
     6     6     1   ar
     7     6     7    1
     8     7     8    1
     9     7     9    1
    10     5    10   ar
    11    10    11   ar
    12    11    12   ar
    13    12    13    1
    14    12    14   ar
    15    14     4   ar
    16    11    15    1
    17    15    16    1
    18    15    17    1
    19    15    18    1
    20    18    19    1
    21    19    20   ar
    22    20    21    1
    23    20    22   ar
    24    22    23    1
    25    22    24   ar
    26    24    25    1
    27    24    26   ar
    28    26    27   ar
    29    27    28    1
    30    27    19   ar
    31    26    29    1
    32    29    30    1
    33    30    31    1
    34    30    32    1
    35    30    33    1
    36    18    34    1
    37    34    35    1
    38    34    36    1
    39    34    37    1
    40    10    38    1
    41    38    39    1
    42    38    40    1
    43    38    41    1
    44     2    42    1
    45    42    43    1
    46    42    44    1
