@<TRIPOS>MOLECULE
27_7
 41 43 0 0 0
SMALL
USER_CHARGES
****
From 3DB ct
@<TRIPOS>ATOM
      1 N          10.1170    2.6910   12.7690 N.ar    1  LIG1       -0.7112
      2 C          10.7840    2.0030   11.8560 C.ar    1  LIG1        0.8028
      3 N          12.0770    2.1530   11.6130 N.ar    1  LIG1       -0.6984
      4 C          12.7520    3.0340   12.3310 C.ar    1  LIG1        0.8259
      5 C          12.1880    3.8160   13.3460 C.ar    1  LIG1       -0.8419
      6 C          10.8000    3.5900   13.4950 C.ar    1  LIG1        0.8161
      7 N          10.0080    4.2680   14.4100 N.pl3   1  LIG1       -0.7568
      8 H           9.9980    5.2790   14.3050 H       1  LIG1        0.3257
      9 H          10.1600    4.0110   15.3820 H       1  LIG1        0.3198
     10 C          13.0650    4.7220   14.0670 C.ar    1  LIG1        0.4430
     11 C          14.4030    4.8650   13.6470 C.ar    1  LIG1       -0.3800
     12 C          14.8250    4.0100   12.6400 C.ar    1  LIG1        0.3908
     13 H          15.8600    4.0210   12.2980 H       1  LIG1        0.0841
     14 N          14.0370    3.1160   12.0040 N.ar    1  LIG1       -0.5904
     15 C          15.4100    5.8200   14.2550 C.3     1  LIG1        0.1035
     16 H          15.9480    5.2730   15.0390 H       1  LIG1        0.0662
     17 H          14.9250    6.6880   14.7070 H       1  LIG1        0.0885
     18 N          16.3290    6.3270   13.2430 N.pl3   1  LIG1       -0.6815
     19 H          17.2310    5.8560   13.1750 H       1  LIG1        0.3468
     20 C          15.9530    7.1210   12.1740 C.ar    1  LIG1        0.5030
     21 C          16.9180    7.4450   11.2100 C.ar    1  LIG1       -0.3883
     22 H          17.9300    7.0490   11.2950 H       1  LIG1        0.1333
     23 C          16.6150    8.2710   10.1270 C.ar    1  LIG1        0.0254
     24 H          17.3790    8.5040    9.3880 H       1  LIG1        0.1084
     25 C          15.3340    8.8000    9.9980 C.ar    1  LIG1       -0.3453
     26 H          15.1020    9.4450    9.1530 H       1  LIG1        0.1285
     27 C          14.3570    8.5110   10.9500 C.ar    1  LIG1        0.4046
     28 C          14.6730    7.6800   12.0330 C.ar    1  LIG1       -0.4632
     29 H          13.9170    7.4550   12.7770 H       1  LIG1        0.1580
     30 O          13.1420    9.0970   10.7140 O.3     1  LIG1       -0.3003
     31 C          13.0180    9.8690    9.5210 C.3     1  LIG1        0.0416
     32 H          11.9980   10.2650    9.4860 H       1  LIG1        0.0588
     33 H          13.1650    9.2460    8.6330 H       1  LIG1        0.0353
     34 H          13.7060   10.7210    9.5310 H       1  LIG1        0.0315
     35 C          12.5530    5.5130   15.2460 C.3     1  LIG1       -0.2141
     36 H          13.3520    5.8920   15.8860 H       1  LIG1        0.0413
     37 H          11.9690    4.8770   15.9150 H       1  LIG1        0.0796
     38 H          11.9530    6.3620   14.9050 H       1  LIG1        0.0642
     39 N          10.0980    1.0900   11.1170 N.pl3   1  LIG1       -0.8055
     40 H          10.5780    0.5500   10.4120 H       1  LIG1        0.3780
     41 H           9.1110    0.9560   11.2800 H       1  LIG1        0.3722
@<TRIPOS>BOND
     1     1     2   ar
     2     2     3   ar
     3     3     4   ar
     4     4     5   ar
     5     5     6   ar
     6     6     1   ar
     7     6     7    1
     8     7     8    1
     9     7     9    1
    10     5    10   ar
    11    10    11   ar
    12    11    12   ar
    13    12    13    1
    14    12    14   ar
    15    14     4   ar
    16    11    15    1
    17    15    16    1
    18    15    17    1
    19    15    18    1
    20    18    19    1
    21    18    20    1
    22    20    21   ar
    23    21    22    1
    24    21    23   ar
    25    23    24    1
    26    23    25   ar
    27    25    26    1
    28    25    27   ar
    29    27    28   ar
    30    28    29    1
    31    28    20   ar
    32    27    30    1
    33    30    31    1
    34    31    32    1
    35    31    33    1
    36    31    34    1
    37    10    35    1
    38    35    36    1
    39    35    37    1
    40    35    38    1
    41     2    39    1
    42    39    40    1
    43    39    41    1
