@<TRIPOS>MOLECULE
30_3
 45 48 0 0 0
SMALL
USER_CHARGES
****
From 3DB ct
@<TRIPOS>ATOM
      1 C          10.6990    2.1190   11.8230 C.ar    1  LIG1        0.8326
      2 N          11.9820    2.1880   11.3660 N.ar    1  LIG1       -0.7156
      3 C          12.9270    2.9330   12.0190 C.ar    1  LIG1        0.8403
      4 C          12.5730    3.6930   13.1940 C.ar    1  LIG1       -0.9035
      5 C          11.2230    3.6060   13.6450 C.ar    1  LIG1        0.8370
      6 N          10.3340    2.8280   12.9360 N.ar    1  LIG1       -0.7276
      7 N          10.8140    4.2770   14.7430 N.pl3   1  LIG1       -0.7538
      8 H          11.3960    4.7880   15.2000 H       1  LIG1        0.3227
      9 H           9.9590    4.2140   15.0170 H       1  LIG1        0.3206
     10 C          13.5520    4.4390   13.8550 C.ar    1  LIG1        0.5357
     11 C          14.8410    4.4680   13.3790 C.ar    1  LIG1       -0.4006
     12 C          15.1680    3.7130   12.1960 C.ar    1  LIG1        0.3629
     13 H          16.0550    3.7230   11.8570 H       1  LIG1        0.0773
     14 N          14.2110    2.9800   11.5530 N.ar    1  LIG1       -0.5733
     15 C          15.9880    5.2640   14.1130 C.3     1  LIG1       -0.0333
     16 H          15.6070    5.9640   14.6300 H       1  LIG1        0.0617
     17 H          16.4440    4.6690   14.6970 H       1  LIG1        0.0768
     18 N          17.0270    5.9210   13.1700 N.pl3   1  LIG1       -0.0908
     19 C          16.4770    6.9470   12.2150 C.ar    1  LIG1       -0.0830
     20 C          17.2990    7.4470   11.0980 C.ar    1  LIG1        0.0237
     21 C          16.6440    8.1990   10.0570 C.ar    1  LIG1       -0.2485
     22 H          17.2160    8.5050    9.1820 H       1  LIG1        0.1361
     23 C          15.2680    8.5500   10.1430 C.ar    1  LIG1        0.2865
     24 C          14.4930    8.1380   11.2620 C.ar    1  LIG1       -0.2674
     25 H          13.5860    8.4110   11.3380 H       1  LIG1        0.1473
     26 C          15.0780    7.3220   12.2580 C.ar    1  LIG1       -0.0307
     27 H          14.5500    7.0030   12.9810 H       1  LIG1        0.0929
     28 O          14.7150    9.2510    9.1980 O.3     1  LIG1       -0.3000
     29 C          15.4610    9.6800    8.0650 C.3     1  LIG1        0.0263
     30 H          16.4900    9.3260    8.1370 H       1  LIG1        0.0360
     31 H          15.0040    9.2800    7.1600 H       1  LIG1        0.0361
     32 H          15.4560   10.7690    8.0210 H       1  LIG1        0.0639
     33 C          18.5840    6.6760   11.4090 C.3     1  LIG1       -0.1270
     34 H          19.1010    6.2810   10.5210 H       1  LIG1        0.0603
     35 H          19.3080    7.3470   11.9020 H       1  LIG1        0.0678
     36 C          18.1480    5.4700   12.3630 C.3     1  LIG1        0.0793
     37 H          18.9850    5.1120   12.9860 H       1  LIG1        0.0065
     38 H          17.8930    4.6090   11.7160 H       1  LIG1        0.0282
     39 C          13.2400    5.1500   15.1720 C.3     1  LIG1       -0.2548
     40 H          12.8310    4.4490   15.9190 H       1  LIG1        0.0768
     41 H          14.1130    5.5540   15.6920 H       1  LIG1        0.0645
     42 H          12.5620    6.0060   15.0260 H       1  LIG1        0.0728
     43 N           9.8030    1.3470   11.1730 N.pl3   1  LIG1       -0.8216
     44 H          10.0550    0.8820   10.4450 H       1  LIG1        0.3817
     45 H           8.9550    1.2960   11.4690 H       1  LIG1        0.3772
@<TRIPOS>BOND
     1     1     2   ar
     2     2     3   ar
     3     3     4   ar
     4     4     5   ar
     5     5     6   ar
     6     6     1   ar
     7     5     7    1
     8     7     8    1
     9     7     9    1
    10     4    10   ar
    11    10    11   ar
    12    11    12   ar
    13    12    13    1
    14    12    14   ar
    15    14     3   ar
    16    11    15    1
    17    15    16    1
    18    15    17    1
    19    15    18    1
    20    18    19    1
    21    19    20   ar
    22    20    21   ar
    23    21    22    1
    24    21    23   ar
    25    23    24   ar
    26    24    25    1
    27    24    26   ar
    28    26    27    1
    29    26    19   ar
    30    23    28    1
    31    28    29    1
    32    29    30    1
    33    29    31    1
    34    29    32    1
    35    20    33    1
    36    33    34    1
    37    33    35    1
    38    33    36    1
    39    36    37    1
    40    36    38    1
    41    36    18    1
    42    10    39    1
    43    39    40    1
    44    39    41    1
    45    39    42    1
    46     1    43    1
    47    43    44    1
    48    43    45    1
