@<TRIPOS>MOLECULE
33_2
 52 54 0 0 0
SMALL
USER_CHARGES
****
From 3DB ct
@<TRIPOS>ATOM
      1 N          10.4820    2.7710   13.2560 N.ar    0  UNK0       -0.7152
      2 C          10.7340    1.9880   12.1950 C.ar    0  UNK0        0.8042
      3 N          11.8370    2.0150   11.4500 N.ar    0  UNK0       -0.6702
      4 C          12.7180    2.9250   11.8760 C.ar    0  UNK0        0.5656
      5 C          12.5930    3.7860   12.9560 C.ar    0  UNK0       -0.6539
      6 C          11.3900    3.6870   13.6620 C.ar    0  UNK0        0.8002
      7 N          11.0470    4.4610   14.7410 N.pl3   0  UNK0       -0.7730
      8 H          11.6180    5.2120   15.0980 H       0  UNK0        0.3522
      9 H          10.1410    4.3140   15.1710 H       0  UNK0        0.3174
     10 C          13.8070    4.5470   13.0050 C.ar    0  UNK0        0.1216
     11 C          14.5540    4.1100   11.9260 C.ar    0  UNK0       -0.1150
     12 H          15.5270    4.3890   11.5390 H       0  UNK0        0.2234
     13 O          13.9110    3.1270   11.2510 O.2     0  UNK0       -0.1621
     14 C          14.1940    5.6130   13.9880 C.3     0  UNK0       -0.0299
     15 H          14.5300    5.1420   14.9190 H       0  UNK0        0.0733
     16 H          13.2660    6.1380   14.2350 H       0  UNK0        0.0670
     17 N          15.2640    6.5410   13.5720 N.pl3   0  UNK0       -0.3293
     18 C          15.2730    7.2030   12.3540 C.ar    0  UNK0        0.2285
     19 C          16.4750    7.6180   11.7540 C.ar    0  UNK0       -0.2508
     20 H          17.4350    7.3990   12.2190 H       0  UNK0        0.0992
     21 C          16.5040    8.3060   10.5310 C.ar    0  UNK0       -0.0390
     22 H          17.4650    8.6000   10.1120 H       0  UNK0        0.1251
     23 C          15.3160    8.6200    9.8700 C.ar    0  UNK0       -0.0984
     24 C          14.1080    8.2140   10.4350 C.ar    0  UNK0       -0.0574
     25 H          13.1590    8.4140    9.9440 H       0  UNK0        0.1412
     26 C          14.0950    7.5200   11.6570 C.ar    0  UNK0       -0.2644
     27 H          13.1170    7.2680   12.0600 H       0  UNK0        0.1179
     28 C          15.1620    9.0450    8.6520 C.2     0  UNK0        0.5677
     29 N          14.0140    8.9090    7.9740 N.am    1  GLU1       -0.5569
     30 H          13.3640    8.3730    8.2920 H       1  GLU1        0.3113
     31 CA         13.7180    9.5810    6.7190 C.3     1  GLU1        0.0810
     32 HA         14.3080   10.3220    6.6480 H       1  GLU1        0.0435
     33 C          12.2870   10.1290    6.6810 C.2     1  GLU1        0.5152
     34 O          12.2300   11.0540    5.7960 O.co2   1  GLU1       -0.6775
     35 OXT        11.5630    9.5130    7.5120 O.co2   1  GLU1       -0.7085
     36 CB         13.9020    8.7300    5.4670 C.3     1  GLU1       -0.0692
     37 HB1        13.5600    7.8580    5.6240 H       1  GLU1        0.0381
     38 HB2        13.4580    9.1300    4.7290 H       1  GLU1        0.0420
     39 CG         15.3730    8.7190    5.2400 C.3     1  GLU1       -0.1291
     40 HG1        15.6780    9.6070    5.0970 H       1  GLU1        0.0061
     41 HG2        15.8060    8.3570    6.0040 H       1  GLU1       -0.0046
     42 CD         15.7050    7.9070    4.0660 C.2     1  GLU1        0.6019
     43 OE1        16.7650    7.1180    4.0190 O.co2   1  GLU1       -0.7482
     44 OE2        14.9390    7.8800    2.9750 O.co2   1  GLU1       -0.7152
     45 O          16.1000    9.5920    8.0420 O.2     0  UNK0       -0.5003
     46 C          16.3490    6.7600   14.5330 C.3     0  UNK0       -0.0291
     47 H          16.5710    7.8280   14.6390 H       0  UNK0        0.0512
     48 H          17.2570    6.2310   14.2220 H       0  UNK0        0.0412
     49 H          16.0780    6.3930   15.5290 H       0  UNK0        0.0420
     50 N           9.7690    1.0900   11.8520 N.pl3   0  UNK0       -0.8265
     51 H           9.9080    0.4810   11.0590 H       0  UNK0        0.3755
     52 H           8.9170    1.0440   12.3910 H       0  UNK0        0.3704
@<TRIPOS>BOND
     1     1     2   ar
     2     2     3   ar
     3     3     4   ar
     4     4     5   ar
     5     5     6   ar
     6     6     1   ar
     7     6     7    1
     8     7     8    1
     9     7     9    1
    10     5    10   ar
    11    10    11   ar
    12    11    12    1
    13    11    13   ar
    14    13     4   ar
    15    10    14    1
    16    14    15    1
    17    14    16    1
    18    14    17    1
    19    17    18    1
    20    18    19   ar
    21    19    20    1
    22    19    21   ar
    23    21    22    1
    24    21    23   ar
    25    23    24   ar
    26    24    25    1
    27    24    26   ar
    28    26    27    1
    29    26    18   ar
    30    23    28    1
    31    28    29   am
    32    29    30    1
    33    29    31    1
    34    31    32    1
    35    31    33    1
    36    33    34   ar
    37    33    35   ar
    38    31    36    1
    39    36    37    1
    40    36    38    1
    41    36    39    1
    42    39    40    1
    43    39    41    1
    44    39    42    1
    45    42    43   ar
    46    42    44   ar
    47    28    45    2
    48    17    46    1
    49    46    47    1
    50    46    48    1
    51    46    49    1
    52     2    50    1
    53    50    51    1
    54    50    52    1
