@<TRIPOS>MOLECULE
36_6a
 44 46 0 0 0
SMALL
USER_CHARGES
****
From 3DB ct
@<TRIPOS>ATOM
      1 N          10.4950    2.8070   13.2770 N.ar    1  LIG1       -0.7052
      2 C          10.6480    2.0340   12.1990 C.ar    1  LIG1        0.8549
      3 N          11.7390    1.9710   11.4490 N.ar    1  LIG1       -0.6453
      4 C          12.7140    2.8010   11.8470 C.ar    1  LIG1        0.3897
      5 C          12.6820    3.6800   12.9190 C.ar    1  LIG1       -0.7344
      6 C          11.4940    3.6230   13.6780 C.ar    1  LIG1        0.7929
      7 N          11.2540    4.3150   14.8390 N.pl3   1  LIG1       -0.7703
      8 H          11.9630    4.8070   15.3590 H       1  LIG1        0.3308
      9 H          10.3690    4.1540   15.3070 H       1  LIG1        0.3313
     10 C          13.9170    4.4670   12.9880 C.ar    1  LIG1        0.6016
     11 C          14.8150    4.0080   12.0400 C.ar    1  LIG1       -0.8200
     12 S          14.1910    2.8150   11.0130 S.2     1  LIG1        0.2734
     13 BR         16.5970    4.5870   11.8170 Br      1  LIG1        0.2692
     14 C          14.1480    5.5760   13.9890 C.3     1  LIG1       -0.0699
     15 H          14.4730    5.1060   14.9260 H       1  LIG1        0.0421
     16 H          13.1900    6.0690   14.1710 H       1  LIG1        0.1107
     17 N          15.0790    6.6370   13.6290 N.pl3   1  LIG1       -0.5153
     18 H          15.6910    6.9730   14.3680 H       1  LIG1        0.2821
     19 C          15.1150    7.2660   12.4000 C.ar    1  LIG1        0.4293
     20 C          13.9680    7.5750   11.6620 C.ar    1  LIG1       -0.4840
     21 H          12.9770    7.3280   12.0340 H       1  LIG1        0.1672
     22 C          14.0690    8.2030   10.4190 C.ar    1  LIG1        0.4534
     23 C          15.3150    8.5830    9.9170 C.ar    1  LIG1       -0.2066
     24 C          16.4820    8.2640   10.6220 C.ar    1  LIG1        0.3511
     25 C          16.3670    7.6070   11.8540 C.ar    1  LIG1       -0.5263
     26 H          17.2550    7.3470   12.4260 H       1  LIG1        0.1706
     27 O          17.6650    8.6330   10.0320 O.3     1  LIG1       -0.2226
     28 C          18.8660    8.3080   10.7290 C.3     1  LIG1       -0.0234
     29 H          19.7050    8.6920   10.1410 H       1  LIG1        0.0686
     30 H          18.9880    7.2240   10.8180 H       1  LIG1        0.0561
     31 H          18.8960    8.7950   11.7100 H       1  LIG1        0.0497
     32 O          15.3970    9.2140    8.6980 O.3     1  LIG1       -0.2735
     33 C          16.7700    9.4640    8.3730 C.3     1  LIG1        0.1036
     34 H          16.7960    9.9590    7.3980 H       1  LIG1        0.0282
     35 H          17.3340    8.5280    8.2960 H       1  LIG1        0.0221
     36 H          17.2360   10.1320    9.1060 H       1  LIG1        0.0154
     37 O          12.9140    8.4970    9.7400 O.3     1  LIG1       -0.2937
     38 C          13.2310    9.0600    8.4620 C.3     1  LIG1        0.0131
     39 H          12.2890    9.2440    7.9360 H       1  LIG1        0.0492
     40 H          13.8250    8.3640    7.8600 H       1  LIG1        0.0595
     41 H          13.7540   10.0160    8.5690 H       1  LIG1        0.0521
     42 N           9.5970    1.2410   11.8500 N.pl3   1  LIG1       -0.8596
     43 H           9.6690    0.6380   11.0430 H       1  LIG1        0.3945
     44 H           8.7490    1.2700   12.3960 H       1  LIG1        0.3877
@<TRIPOS>BOND
     1     1     2   ar
     2     2     3   ar
     3     3     4   ar
     4     4     5   ar
     5     5     6   ar
     6     6     1   ar
     7     6     7    1
     8     7     8    1
     9     7     9    1
    10     5    10   ar
    11    10    11   ar
    12    11    12   ar
    13    12     4   ar
    14    11    13    1
    15    10    14    1
    16    14    15    1
    17    14    16    1
    18    14    17    1
    19    17    18    1
    20    17    19    1
    21    19    20   ar
    22    20    21    1
    23    20    22   ar
    24    22    23   ar
    25    23    24   ar
    26    24    25   ar
    27    25    26    1
    28    25    19   ar
    29    24    27    1
    30    27    28    1
    31    28    29    1
    32    28    30    1
    33    28    31    1
    34    23    32    1
    35    32    33    1
    36    33    34    1
    37    33    35    1
    38    33    36    1
    39    22    37    1
    40    37    38    1
    41    38    39    1
    42    38    40    1
    43    38    41    1
    44     2    42    1
    45    42    43    1
    46    42    44    1
