@<TRIPOS>MOLECULE
38_11
 42 45 0 0 0
SMALL
USER_CHARGES
****
From 3DB ct
@<TRIPOS>ATOM
      1 N          10.4820    2.7720   13.2580 N.ar    1  LIG1       -0.7169
      2 C          10.7270    2.0040   12.1850 C.ar    1  LIG1        0.8255
      3 N          11.8330    2.0240   11.4450 N.ar    1  LIG1       -0.6843
      4 C          12.7200    2.9250   11.8800 C.ar    1  LIG1        0.5935
      5 C          12.5940    3.7850   12.9610 C.ar    1  LIG1       -0.6701
      6 C          11.3990    3.6730   13.6780 C.ar    1  LIG1        0.7954
      7 N          11.0810    4.4070   14.7910 N.pl3   1  LIG1       -0.7655
      8 H          11.7020    5.0790   15.2170 H       1  LIG1        0.3322
      9 H          10.1850    4.2460   15.2380 H       1  LIG1        0.3306
     10 C          13.8010    4.5560   13.0030 C.ar    1  LIG1        0.0340
     11 C          14.5740    4.0800   11.9590 C.ar    1  LIG1       -0.1103
     12 H          15.5620    4.3300   11.5940 H       1  LIG1        0.2135
     13 O          13.9260    3.1060   11.2750 O.2     1  LIG1       -0.1609
     14 C          14.1750    5.6300   13.9760 C.3     1  LIG1        0.2301
     15 H          14.4830    5.1260   14.9010 H       1  LIG1        0.0275
     16 H          13.2850    6.2280   14.2010 H       1  LIG1        0.0465
     17 N          15.2220    6.5420   13.5440 N.pl3   1  LIG1       -0.7660
     18 H          16.0670    6.5580   14.1110 H       1  LIG1        0.3514
     19 C          15.2570    7.2010   12.3240 C.ar    1  LIG1        0.4729
     20 C          14.0810    7.5320   11.6300 C.ar    1  LIG1       -0.3198
     21 H          13.1040    7.2490   12.0160 H       1  LIG1        0.1460
     22 C          14.1120    8.2320   10.4200 C.ar    1  LIG1       -0.0207
     23 H          13.1820    8.4700    9.9070 H       1  LIG1        0.1014
     24 C          15.3270    8.6260    9.8750 C.ar    1  LIG1       -0.2046
     25 H          15.3550    9.1710    8.9340 H       1  LIG1        0.1121
     26 C          16.5100    8.3180   10.5420 C.ar    1  LIG1       -0.0010
     27 H          17.4580    8.6300   10.1030 H       1  LIG1        0.0944
     28 C          16.4970    7.6090   11.7620 C.ar    1  LIG1       -0.3159
     29 C          17.7890    7.3110   12.4070 C.ar    1  LIG1        0.2485
     30 C          18.3560    6.0280   12.3220 C.ar    1  LIG1       -0.2343
     31 H          17.8410    5.2390   11.7740 H       1  LIG1        0.1304
     32 C          19.5770    5.7440   12.9380 C.ar    1  LIG1       -0.0604
     33 H          20.0010    4.7440   12.8670 H       1  LIG1        0.0988
     34 C          20.2490    6.7380   13.6450 C.ar    1  LIG1       -0.1439
     35 H          21.2000    6.5160   14.1260 H       1  LIG1        0.1082
     36 C          19.7040    8.0180   13.7350 C.ar    1  LIG1       -0.0678
     37 H          20.2280    8.7960   14.2860 H       1  LIG1        0.1008
     38 C          18.4830    8.3030   13.1180 C.ar    1  LIG1       -0.2173
     39 H          18.0680    9.3070   13.2010 H       1  LIG1        0.1293
     40 N           9.7540    1.1210   11.8260 N.pl3   1  LIG1       -0.8249
     41 H           9.8890    0.5200   11.0270 H       1  LIG1        0.3836
     42 H           8.9020    1.0720   12.3660 H       1  LIG1        0.3780
@<TRIPOS>BOND
     1     1     2   ar
     2     2     3   ar
     3     3     4   ar
     4     4     5   ar
     5     5     6   ar
     6     6     1   ar
     7     6     7    1
     8     7     8    1
     9     7     9    1
    10     5    10   ar
    11    10    11   ar
    12    11    12    1
    13    11    13   ar
    14    13     4   ar
    15    10    14    1
    16    14    15    1
    17    14    16    1
    18    14    17    1
    19    17    18    1
    20    17    19    1
    21    19    20   ar
    22    20    21    1
    23    20    22   ar
    24    22    23    1
    25    22    24   ar
    26    24    25    1
    27    24    26   ar
    28    26    27    1
    29    26    28   ar
    30    28    19   ar
    31    28    29    1
    32    29    30   ar
    33    30    31    1
    34    30    32   ar
    35    32    33    1
    36    32    34   ar
    37    34    35    1
    38    34    36   ar
    39    36    37    1
    40    36    38   ar
    41    38    39    1
    42    38    29   ar
    43     2    40    1
    44    40    41    1
    45    40    42    1
