@<TRIPOS>MOLECULE
43_16
 46 48 0 0 0
SMALL
USER_CHARGES
****
From 3DB ct
@<TRIPOS>ATOM
      1 N          12.0840    2.1590   11.7000 N.ar    1  LIG1       -0.7674
      2 H          12.2800    1.4350   11.0240 H       1  LIG1        0.3413
      3 C          10.7790    2.3640   12.0980 C.ar    1  LIG1        0.8731
      4 N          10.4270    3.2760   12.9660 N.ar    1  LIG1       -0.6423
      5 C          11.4620    4.0060   13.4430 C.ar    1  LIG1        0.4615
      6 C          12.7960    3.8940   13.1230 C.ar    1  LIG1       -0.5300
      7 C          13.1690    2.8810   12.1610 C.ar    1  LIG1        0.7757
      8 O          14.3220    2.6780   11.7870 O.2     1  LIG1       -0.4716
      9 C          13.5150    4.8720   13.8700 C.ar    1  LIG1       -0.0321
     10 C          12.5650    5.5490   14.6340 C.ar    1  LIG1        0.0964
     11 N          11.3250    5.0110   14.3570 N.ar    1  LIG1       -0.4334
     12 H          10.4440    5.3080   14.7620 H       1  LIG1        0.3652
     13 C          12.7220    6.6720   15.5980 C.3     1  LIG1       -0.1255
     14 H          13.6170    6.5320   16.2120 H       1  LIG1        0.0507
     15 H          11.8610    6.7440   16.2710 H       1  LIG1        0.0459
     16 H          12.8170    7.6200   15.0590 H       1  LIG1        0.0584
     17 C          15.0040    5.1250   13.8460 C.3     1  LIG1        0.0236
     18 H          15.4780    4.5310   13.0570 H       1  LIG1        0.0948
     19 H          15.3750    4.7200   14.7970 H       1  LIG1        0.0579
     20 N          15.4400    6.5270   13.6870 N.pl3   1  LIG1       -0.2180
     21 C          15.3240    7.1970   12.4750 C.ar    1  LIG1        0.3109
     22 C          16.4320    7.4240   11.6410 C.ar    1  LIG1       -0.4020
     23 H          17.4160    7.0500   11.9190 H       1  LIG1        0.1401
     24 C          16.3250    8.0980   10.4160 C.ar    1  LIG1        0.3790
     25 C          15.0830    8.5650   10.0010 C.ar    1  LIG1       -0.4707
     26 H          14.9570    9.0930    9.0600 H       1  LIG1        0.1528
     27 C          13.9560    8.3570   10.7980 C.ar    1  LIG1        0.4569
     28 C          14.0840    7.6810   12.0180 C.ar    1  LIG1       -0.4492
     29 H          13.2080    7.5410   12.6450 H       1  LIG1        0.1545
     30 O          12.7940    8.8660   10.2810 O.3     1  LIG1       -0.2981
     31 C          12.8790    9.5230    9.0170 C.3     1  LIG1        0.0237
     32 H          11.8780    9.8830    8.7620 H       1  LIG1        0.0576
     33 H          13.1940    8.8270    8.2330 H       1  LIG1        0.0441
     34 H          13.5430   10.3920    9.0690 H       1  LIG1        0.0400
     35 O          17.5020    8.2260    9.7290 O.3     1  LIG1       -0.2898
     36 C          18.6770    7.7240   10.3660 C.3     1  LIG1        0.0482
     37 H          19.5220    7.9090    9.6950 H       1  LIG1        0.0548
     38 H          18.6060    6.6430   10.5250 H       1  LIG1        0.0313
     39 H          18.8730    8.2530   11.3040 H       1  LIG1        0.0314
     40 C          15.9110    7.2360   14.8760 C.3     1  LIG1       -0.1612
     41 H          15.5820    6.7440   15.7970 H       1  LIG1        0.0944
     42 H          15.5100    8.2560   14.9170 H       1  LIG1        0.0814
     43 H          17.0050    7.2810   14.8870 H       1  LIG1        0.0569
     44 N           9.8530    1.5580   11.5370 N.pl3   1  LIG1       -0.8874
     45 H           8.8740    1.6540   11.7840 H       1  LIG1        0.3831
     46 H          10.0780    0.8370   10.8620 H       1  LIG1        0.3932
@<TRIPOS>BOND
     1     2     1    1
     2     1     3   ar
     3     3     4   ar
     4     4     5   ar
     5     5     6   ar
     6     6     7   ar
     7     7     1   ar
     8     7     8    2
     9     6     9   ar
    10     9    10   ar
    11    10    11   ar
    12    11    12    1
    13    11     5   ar
    14    10    13    1
    15    13    14    1
    16    13    15    1
    17    13    16    1
    18     9    17    1
    19    17    18    1
    20    17    19    1
    21    17    20    1
    22    20    21    1
    23    21    22   ar
    24    22    23    1
    25    22    24   ar
    26    24    25   ar
    27    25    26    1
    28    25    27   ar
    29    27    28   ar
    30    28    29    1
    31    28    21   ar
    32    27    30    1
    33    30    31    1
    34    31    32    1
    35    31    33    1
    36    31    34    1
    37    24    35    1
    38    35    36    1
    39    36    37    1
    40    36    38    1
    41    36    39    1
    42    20    40    1
    43    40    41    1
    44    40    42    1
    45    40    43    1
    46     3    44    1
    47    44    45    1
    48    44    46    1
