@<TRIPOS>MOLECULE
43_9
 43 45 0 0 0
SMALL
USER_CHARGES
****
From 3DB ct
@<TRIPOS>ATOM
      1 N          12.0830    2.1580   11.7030 N.ar    1  LIG1       -0.7561
      2 H          12.2880    1.4400   11.0240 H       1  LIG1        0.3379
      3 C          10.7730    2.3570   12.0890 C.ar    1  LIG1        0.8728
      4 N          10.4110    3.2630   12.9590 N.ar    1  LIG1       -0.6478
      5 C          11.4390    3.9930   13.4510 C.ar    1  LIG1        0.4935
      6 C          12.7770    3.8870   13.1440 C.ar    1  LIG1       -0.5625
      7 C          13.1610    2.8790   12.1800 C.ar    1  LIG1        0.7682
      8 O          14.3170    2.6820   11.8120 O.2     1  LIG1       -0.4679
      9 C          13.4860    4.8630   13.9030 C.ar    1  LIG1       -0.0235
     10 C          12.5240    5.5430   14.6490 C.ar    1  LIG1        0.0920
     11 N          11.2900    4.9930   14.3690 N.ar    1  LIG1       -0.4671
     12 H          10.4060    5.2820   14.7720 H       1  LIG1        0.3752
     13 C          12.6660    6.6640   15.6180 C.3     1  LIG1       -0.0620
     14 H          13.4500    7.3570   15.2990 H       1  LIG1        0.0318
     15 H          12.9320    6.2750   16.6060 H       1  LIG1        0.0426
     16 H          11.7350    7.2330   15.7110 H       1  LIG1        0.0347
     17 C          14.9710    5.1180   13.8990 C.3     1  LIG1        0.0935
     18 H          15.3960    4.5020   13.0970 H       1  LIG1        0.0854
     19 H          15.3970    4.7720   14.8460 H       1  LIG1        0.0413
     20 N          15.3370    6.5110   13.6890 N.pl3   1  LIG1       -0.5325
     21 H          15.5420    7.0360   14.5360 H       1  LIG1        0.3126
     22 C          15.3490    7.1860   12.4800 C.ar    1  LIG1        0.2263
     23 C          16.4810    7.4050   11.6630 C.ar    1  LIG1        0.0216
     24 C          16.3430    8.0850   10.4400 C.ar    1  LIG1       -0.2680
     25 H          17.1980    8.2550    9.7900 H       1  LIG1        0.1598
     26 C          15.1040    8.5640   10.0070 C.ar    1  LIG1        0.2742
     27 C          13.9870    8.3660   10.8060 C.ar    1  LIG1       -0.2577
     28 H          13.0000    8.7190   10.5220 H       1  LIG1        0.1461
     29 C          14.1150    7.6860   12.0230 C.ar    1  LIG1       -0.1383
     30 H          13.2160    7.5390   12.6230 H       1  LIG1        0.1468
     31 O          15.1230    9.2000    8.7960 O.3     1  LIG1       -0.3119
     32 C          16.3740    9.2410    8.1110 C.3     1  LIG1        0.0792
     33 H          16.2270    9.8050    7.1840 H       1  LIG1        0.0504
     34 H          16.7060    8.2340    7.8400 H       1  LIG1        0.0202
     35 H          17.1320    9.7650    8.7030 H       1  LIG1        0.0167
     36 O          17.6860    6.9260   12.1160 O.3     1  LIG1       -0.2599
     37 C          18.8300    7.0890   11.2810 C.3     1  LIG1        0.0082
     38 H          19.7010    6.7300   11.8380 H       1  LIG1        0.0562
     39 H          18.9990    8.1440   11.0410 H       1  LIG1        0.0331
     40 H          18.7420    6.4810   10.3740 H       1  LIG1        0.0472
     41 N           9.8560    1.5540   11.5110 N.pl3   1  LIG1       -0.8918
     42 H           8.8730    1.6480   11.7430 H       1  LIG1        0.3849
     43 H          10.0900    0.8410   10.8300 H       1  LIG1        0.3946
@<TRIPOS>BOND
     1     2     1    1
     2     1     3   ar
     3     3     4   ar
     4     4     5   ar
     5     5     6   ar
     6     6     7   ar
     7     7     1   ar
     8     7     8    2
     9     6     9   ar
    10     9    10   ar
    11    10    11   ar
    12    11    12    1
    13    11     5   ar
    14    10    13    1
    15    13    14    1
    16    13    15    1
    17    13    16    1
    18     9    17    1
    19    17    18    1
    20    17    19    1
    21    17    20    1
    22    20    21    1
    23    20    22    1
    24    22    23   ar
    25    23    24   ar
    26    24    25    1
    27    24    26   ar
    28    26    27   ar
    29    27    28    1
    30    27    29   ar
    31    29    30    1
    32    29    22   ar
    33    26    31    1
    34    31    32    1
    35    32    33    1
    36    32    34    1
    37    32    35    1
    38    23    36    1
    39    36    37    1
    40    37    38    1
    41    37    39    1
    42    37    40    1
    43     3    41    1
    44    41    42    1
    45    41    43    1
