@<TRIPOS>MOLECULE
44_12
 27 29 0 0 0
SMALL
USER_CHARGES
****
From 3DB ct
@<TRIPOS>ATOM
      1 N          10.2640    2.6580   13.0270 N.ar    1  LIG1       -0.6577
      2 C          10.8730    1.8730   12.1160 C.ar    1  LIG1        0.6963
      3 N          12.1190    2.0250   11.6440 N.ar    1  LIG1       -0.5959
      4 C          12.7410    3.0830   12.1840 C.ar    1  LIG1        0.3837
      5 C          12.2380    3.9630   13.1210 C.ar    1  LIG1       -0.2304
      6 C          10.9250    3.7200   13.5540 C.ar    1  LIG1        0.6431
      7 N          10.2750    4.5000   14.4810 N.pl3   1  LIG1       -0.7513
      8 H          10.7400    5.3010   14.8940 H       1  LIG1        0.3583
      9 H           9.3270    4.2780   14.7570 H       1  LIG1        0.3506
     10 N          13.1740    4.9270   13.4390 N.ar    1  LIG1       -0.2573
     11 C          14.2360    4.6380   12.7030 C.ar    1  LIG1       -0.2410
     12 N          14.0080    3.5200   11.9270 N.ar    1  LIG1       -0.2880
     13 H          14.6620    3.0970   11.2830 H       1  LIG1        0.2898
     14 C          15.5030    5.3670   12.6810 C.ar    1  LIG1        0.8957
     15 C          15.7780    6.3110   11.6740 C.ar    1  LIG1       -0.6005
     16 C          16.9900    7.0110   11.6580 C.ar    1  LIG1        0.1795
     17 H          17.1980    7.7400   10.8770 H       1  LIG1        0.0623
     18 C          17.9450    6.7820   12.6460 C.ar    1  LIG1       -0.2422
     19 H          18.8870    7.3270   12.6330 H       1  LIG1        0.1360
     20 C          17.6900    5.8520   13.6510 C.ar    1  LIG1        0.2321
     21 H          18.4420    5.6770   14.4180 H       1  LIG1        0.0506
     22 C          16.4790    5.1490   13.6700 C.ar    1  LIG1       -0.6484
     23 CL         16.2550    3.9970   14.9470 Cl      1  LIG1        0.1460
     24 CL         14.6470    6.6610   10.4070 Cl      1  LIG1        0.1239
     25 N          10.1520    0.8250   11.6300 N.pl3   1  LIG1       -0.7538
     26 H          10.5650    0.2090   10.9450 H       1  LIG1        0.3600
     27 H           9.2100    0.6730   11.9570 H       1  LIG1        0.3586
@<TRIPOS>BOND
     1     1     2   ar
     2     2     3   ar
     3     3     4   ar
     4     4     5   ar
     5     5     6   ar
     6     6     1   ar
     7     6     7    1
     8     7     8    1
     9     7     9    1
    10     5    10   ar
    11    10    11   ar
    12    11    12   ar
    13    12    13    1
    14    12     4   ar
    15    11    14    1
    16    14    15   ar
    17    15    16   ar
    18    16    17    1
    19    16    18   ar
    20    18    19    1
    21    18    20   ar
    22    20    21    1
    23    20    22   ar
    24    22    14   ar
    25    22    23    1
    26    15    24    1
    27     2    25    1
    28    25    26    1
    29    25    27    1
