@<TRIPOS>MOLECULE
6_21
 23 24 0 0 0
SMALL
USER_CHARGES
****
From 3DB ct
@<TRIPOS>ATOM
      1 N          10.1060    2.6290   12.8420 N.ar    1  LIG1       -0.6780
      2 C          10.7250    2.0020   11.8430 C.ar    1  LIG1        0.8007
      3 N          12.0180    2.1420   11.5460 N.ar    1  LIG1       -0.6725
      4 C          12.7440    2.9780   12.2990 C.ar    1  LIG1        0.5051
      5 C          12.2000    3.6890   13.3720 C.ar    1  LIG1       -0.4998
      6 C          10.8420    3.4480   13.6090 C.ar    1  LIG1        0.6987
      7 N          10.1450    4.0950   14.6150 N.pl3   1  LIG1       -0.7616
      8 H          10.6110    4.2450   15.5040 H       1  LIG1        0.3368
      9 H           9.1640    3.8420   14.6910 H       1  LIG1        0.3289
     10 C          13.0200    4.5750   14.1150 C.ar    1  LIG1        0.0677
     11 H          12.6060    5.1480   14.9420 H       1  LIG1        0.0846
     12 C          14.3670    4.7360   13.7970 C.ar    1  LIG1       -0.3046
     13 H          14.9760    5.4270   14.3780 H       1  LIG1        0.1403
     14 C          14.9200    4.0130   12.7420 C.ar    1  LIG1        0.2440
     15 C          14.0920    3.1540   12.0010 C.ar    1  LIG1       -0.3445
     16 H          14.5140    2.6030   11.1610 H       1  LIG1        0.1622
     17 C          16.3600    4.1950   12.3610 C.3     1  LIG1       -0.2301
     18 H          16.4510    4.9860   11.6110 H       1  LIG1        0.0736
     19 H          16.7740    3.2680   11.9520 H       1  LIG1        0.0606
     20 H          16.9640    4.4630   13.2340 H       1  LIG1        0.0644
     21 N           9.9890    1.1590   11.0690 N.pl3   1  LIG1       -0.8292
     22 H          10.4280    0.6700   10.3030 H       1  LIG1        0.3798
     23 H           9.0070    1.0300   11.2650 H       1  LIG1        0.3731
@<TRIPOS>BOND
     1     1     2   ar
     2     2     3   ar
     3     3     4   ar
     4     4     5   ar
     5     5     6   ar
     6     6     1   ar
     7     6     7    1
     8     7     8    1
     9     7     9    1
    10     5    10   ar
    11    10    11    1
    12    10    12   ar
    13    12    13    1
    14    12    14   ar
    15    14    15   ar
    16    15    16    1
    17    15     4   ar
    18    14    17    1
    19    17    18    1
    20    17    19    1
    21    17    20    1
    22     2    21    1
    23    21    22    1
    24    21    23    1
