@<TRIPOS>MOLECULE
9_12f
 36 38 0 0 0
SMALL
USER_CHARGES
****
From 3DB ct
@<TRIPOS>ATOM
      1 N          10.1480    2.6040   12.8650 N.ar    1  LIG1       -0.6364
      2 C          10.7700    1.9700   11.8740 C.ar    1  LIG1        0.7486
      3 N          12.0410    2.1610   11.5400 N.ar    1  LIG1       -0.6710
      4 C          12.7370    3.0490   12.2420 C.ar    1  LIG1        0.6313
      5 C          12.2070    3.7850   13.3100 C.ar    1  LIG1       -0.2957
      6 C          10.8720    3.4870   13.5760 C.ar    1  LIG1        0.5929
      7 N          10.1790    4.1590   14.5750 N.pl3   1  LIG1       -0.7117
      8 H          10.7130    4.4950   15.3720 H       1  LIG1        0.3427
      9 H           9.2230    3.8700   14.7490 H       1  LIG1        0.3479
     10 N          12.9490    4.6960   14.0190 N.ar    1  LIG1       -0.2113
     11 C          14.2390    4.8630   13.6380 C.ar    1  LIG1        0.0812
     12 C          14.7500    4.1310   12.5800 C.ar    1  LIG1        0.1980
     13 H          15.7800    4.2490   12.2530 H       1  LIG1        0.1003
     14 N          14.0140    3.2270   11.8820 N.ar    1  LIG1       -0.4609
     15 C          15.0870    5.8720   14.3690 C.3     1  LIG1       -0.2535
     16 H          15.2720    5.5270   15.3930 H       1  LIG1        0.1258
     17 H          14.5380    6.8170   14.4300 H       1  LIG1        0.1133
     18 S          16.6800    6.1540   13.5060 S.3     1  LIG1       -0.0164
     19 C          16.1300    7.1830   12.1530 C.ar    1  LIG1       -0.0480
     20 C          14.8290    7.6930   12.1870 C.ar    1  LIG1       -0.1217
     21 H          14.1590    7.4570   13.0120 H       1  LIG1        0.1071
     22 C          14.3670    8.5110   11.1560 C.ar    1  LIG1       -0.0399
     23 H          13.3530    8.9030   11.1830 H       1  LIG1        0.1042
     24 C          15.2100    8.8270   10.0910 C.ar    1  LIG1       -0.2507
     25 H          14.8410    9.4660    9.2900 H       1  LIG1        0.1422
     26 C          16.5180    8.3370   10.0500 C.ar    1  LIG1        0.3028
     27 C          16.9770    7.5200   11.0860 C.ar    1  LIG1       -0.1864
     28 H          17.9960    7.1460   11.0880 H       1  LIG1        0.1224
     29 O          17.2410    8.7310    8.9570 O.3     1  LIG1       -0.3029
     30 C          18.5810    8.2520    8.8640 C.3     1  LIG1        0.0299
     31 H          19.0130    8.6460    7.9390 H       1  LIG1        0.0667
     32 H          18.6060    7.1590    8.8050 H       1  LIG1        0.0372
     33 H          19.1880    8.6190    9.6990 H       1  LIG1        0.0387
     34 N          10.0520    1.0690   11.1520 N.pl3   1  LIG1       -0.7540
     35 H          10.4900    0.5710   10.3900 H       1  LIG1        0.3708
     36 H           9.0810    0.9090   11.3760 H       1  LIG1        0.3565
@<TRIPOS>BOND
     1     1     2   ar
     2     2     3   ar
     3     3     4   ar
     4     4     5   ar
     5     5     6   ar
     6     6     1   ar
     7     6     7    1
     8     7     8    1
     9     7     9    1
    10     5    10   ar
    11    10    11   ar
    12    11    12   ar
    13    12    13    1
    14    12    14   ar
    15    14     4   ar
    16    11    15    1
    17    15    16    1
    18    15    17    1
    19    15    18    1
    20    18    19    1
    21    19    20   ar
    22    20    21    1
    23    20    22   ar
    24    22    23    1
    25    22    24   ar
    26    24    25    1
    27    24    26   ar
    28    26    27   ar
    29    27    28    1
    30    27    19   ar
    31    26    29    1
    32    29    30    1
    33    30    31    1
    34    30    32    1
    35    30    33    1
    36     2    34    1
    37    34    35    1
    38    34    36    1
