@<TRIPOS>MOLECULE
9_13f
 40 42 0 0 0
SMALL
USER_CHARGES
****
From 3DB ct
@<TRIPOS>ATOM
      1 N          10.1050    2.5810   12.7790 N.ar    1  LIG1       -0.7040
      2 C          10.8100    1.9420   11.8580 C.ar    1  LIG1        0.8033
      3 N          12.0900    2.1730   11.6120 N.ar    1  LIG1       -0.6988
      4 C          12.7110    3.0970   12.3250 C.ar    1  LIG1        0.8161
      5 C          12.0960    3.8540   13.3290 C.ar    1  LIG1       -0.8052
      6 C          10.7330    3.5220   13.5030 C.ar    1  LIG1        0.7891
      7 N           9.9100    4.1310   14.4380 N.pl3   1  LIG1       -0.7396
      8 H          10.1640    3.9600   15.4080 H       1  LIG1        0.3191
      9 H           9.7450    5.1220   14.2840 H       1  LIG1        0.3185
     10 C          12.9080    4.8340   14.0270 C.ar    1  LIG1        0.4355
     11 C          14.2620    4.9860   13.6680 C.ar    1  LIG1       -0.3975
     12 C          14.7360    4.1610   12.6610 C.ar    1  LIG1        0.4056
     13 H          15.7750    4.2120   12.3370 H       1  LIG1        0.0706
     14 N          13.9910    3.2470   12.0030 N.ar    1  LIG1       -0.5835
     15 C          15.2310    5.9510   14.3090 C.3     1  LIG1       -0.1128
     16 H          15.4420    5.6560   15.3430 H       1  LIG1        0.1234
     17 H          14.7750    6.9460   14.3710 H       1  LIG1        0.0648
     18 S          16.7790    6.0760   13.3390 S.3     1  LIG1       -0.0482
     19 C          16.2150    7.1310   12.0150 C.ar    1  LIG1       -0.0163
     20 C          14.9050    7.6190   11.9880 C.ar    1  LIG1       -0.1866
     21 H          14.1990    7.3710   12.7780 H       1  LIG1        0.1294
     22 C          14.4820    8.4290   10.9350 C.ar    1  LIG1       -0.0249
     23 H          13.4630    8.8100   10.9160 H       1  LIG1        0.1006
     24 C          15.3650    8.7460    9.9040 C.ar    1  LIG1       -0.2421
     25 H          15.0250    9.3800    9.0860 H       1  LIG1        0.1372
     26 C          16.6740    8.2570    9.9120 C.ar    1  LIG1        0.2925
     27 C          17.0940    7.4450   10.9690 C.ar    1  LIG1       -0.1874
     28 H          18.1050    7.0460   11.0010 H       1  LIG1        0.1323
     29 O          17.4340    8.6390    8.8400 O.3     1  LIG1       -0.3019
     30 C          18.7790    8.1650    8.8030 C.3     1  LIG1        0.0584
     31 H          19.2460    8.5630    7.8970 H       1  LIG1        0.0596
     32 H          18.8080    7.0720    8.7420 H       1  LIG1        0.0286
     33 H          19.3490    8.5310    9.6620 H       1  LIG1        0.0309
     34 C          12.3140    5.6820   15.1260 C.3     1  LIG1       -0.2020
     35 H          11.9520    5.0480   15.9400 H       1  LIG1        0.0704
     36 H          11.5040    6.3010   14.7310 H       1  LIG1        0.0671
     37 H          13.0260    6.3730   15.5810 H       1  LIG1        0.0507
     38 N          10.1800    0.9890   11.1210 N.pl3   1  LIG1       -0.8036
     39 H          10.6880    0.4850   10.4090 H       1  LIG1        0.3790
     40 H           9.2050    0.7890   11.2900 H       1  LIG1        0.3713
@<TRIPOS>BOND
     1     1     2   ar
     2     2     3   ar
     3     3     4   ar
     4     4     5   ar
     5     5     6   ar
     6     6     1   ar
     7     6     7    1
     8     7     8    1
     9     7     9    1
    10     5    10   ar
    11    10    11   ar
    12    11    12   ar
    13    12    13    1
    14    12    14   ar
    15    14     4   ar
    16    11    15    1
    17    15    16    1
    18    15    17    1
    19    15    18    1
    20    18    19    1
    21    19    20   ar
    22    20    21    1
    23    20    22   ar
    24    22    23    1
    25    22    24   ar
    26    24    25    1
    27    24    26   ar
    28    26    27   ar
    29    27    28    1
    30    27    19   ar
    31    26    29    1
    32    29    30    1
    33    30    31    1
    34    30    32    1
    35    30    33    1
    36    10    34    1
    37    34    35    1
    38    34    36    1
    39    34    37    1
    40     2    38    1
    41    38    39    1
    42    38    40    1
