@<TRIPOS>MOLECULE
9_13d
 39 41 0 0 0
SMALL
USER_CHARGES
****
From 3DB ct
@<TRIPOS>ATOM
      1 N          10.1040    2.5910   12.7730 N.ar    1  LIG1       -0.7115
      2 C          10.8090    1.9480   11.8550 C.ar    1  LIG1        0.8063
      3 N          12.0910    2.1710   11.6130 N.ar    1  LIG1       -0.6925
      4 C          12.7140    3.0910   12.3290 C.ar    1  LIG1        0.8157
      5 C          12.1020    3.8480   13.3350 C.ar    1  LIG1       -0.8304
      6 C          10.7350    3.5260   13.5010 C.ar    1  LIG1        0.8081
      7 N           9.9110    4.1430   14.4310 N.pl3   1  LIG1       -0.7464
      8 H          10.1550    3.9680   15.4020 H       1  LIG1        0.3201
      9 H           9.7600    5.1370   14.2760 H       1  LIG1        0.3196
     10 C          12.9170    4.8200   14.0390 C.ar    1  LIG1        0.4465
     11 C          14.2700    4.9720   13.6790 C.ar    1  LIG1       -0.4226
     12 C          14.7420    4.1500   12.6680 C.ar    1  LIG1        0.4484
     13 H          15.7810    4.2000   12.3430 H       1  LIG1        0.0627
     14 N          13.9950    3.2390   12.0080 N.ar    1  LIG1       -0.5978
     15 C          15.2410    5.9330   14.3220 C.3     1  LIG1       -0.1391
     16 H          15.4560    5.6330   15.3530 H       1  LIG1        0.1332
     17 H          14.7830    6.9270   14.3910 H       1  LIG1        0.0703
     18 S          16.7860    6.0640   13.3470 S.3     1  LIG1       -0.0437
     19 C          16.2230    7.1210   12.0250 C.ar    1  LIG1       -0.0578
     20 C          14.9220    7.6300   12.0000 C.ar    1  LIG1       -0.0827
     21 H          14.2130    7.3960   12.7920 H       1  LIG1        0.1154
     22 C          14.5030    8.4370   10.9410 C.ar    1  LIG1       -0.1402
     23 H          13.4860    8.8270   10.9240 H       1  LIG1        0.1126
     24 C          15.3800    8.7380    9.8990 C.ar    1  LIG1       -0.1255
     25 H          15.0350    9.3620    9.0760 H       1  LIG1        0.1199
     26 C          16.6870    8.2380    9.9100 C.ar    1  LIG1        0.0947
     27 C          17.0950    7.4150   10.9710 C.ar    1  LIG1       -0.1432
     28 H          18.1050    7.0070   10.9710 H       1  LIG1        0.1493
     29 C          17.6200    8.5260    8.7700 C.3     1  LIG1       -0.2347
     30 H          17.5120    7.7600    7.9960 H       1  LIG1        0.0751
     31 H          18.6600    8.5420    9.1110 H       1  LIG1        0.0672
     32 H          17.4080    9.5060    8.3310 H       1  LIG1        0.0676
     33 C          12.3280    5.6610   15.1460 C.3     1  LIG1       -0.1773
     34 H          11.9460    5.0200   15.9460 H       1  LIG1        0.0643
     35 H          11.5340    6.3020   14.7530 H       1  LIG1        0.0610
     36 H          13.0490    6.3270   15.6230 H       1  LIG1        0.0425
     37 N          10.1750    0.9980   11.1150 N.pl3   1  LIG1       -0.8077
     38 H          10.6850    0.4880   10.4090 H       1  LIG1        0.3781
     39 H           9.1980    0.8060   11.2800 H       1  LIG1        0.3744
@<TRIPOS>BOND
     1     1     2   ar
     2     2     3   ar
     3     3     4   ar
     4     4     5   ar
     5     5     6   ar
     6     6     1   ar
     7     6     7    1
     8     7     8    1
     9     7     9    1
    10     5    10   ar
    11    10    11   ar
    12    11    12   ar
    13    12    13    1
    14    12    14   ar
    15    14     4   ar
    16    11    15    1
    17    15    16    1
    18    15    17    1
    19    15    18    1
    20    18    19    1
    21    19    20   ar
    22    20    21    1
    23    20    22   ar
    24    22    23    1
    25    22    24   ar
    26    24    25    1
    27    24    26   ar
    28    26    27   ar
    29    27    28    1
    30    27    19   ar
    31    26    29    1
    32    29    30    1
    33    29    31    1
    34    29    32    1
    35    10    33    1
    36    33    34    1
    37    33    35    1
    38    33    36    1
    39     2    37    1
    40    37    38    1
    41    37    39    1
