@<TRIPOS>MOLECULE
9_13m
 44 46 0 0 0
SMALL
USER_CHARGES
****
From 3DB ct
@<TRIPOS>ATOM
      1 N          10.1190    2.6450   12.8050 N.ar    1  LIG1       -0.7081
      2 C          10.7840    1.9640   11.8840 C.ar    1  LIG1        0.7977
      3 N          12.0660    2.1440   11.6100 N.ar    1  LIG1       -0.6968
      4 C          12.7330    3.0540   12.2980 C.ar    1  LIG1        0.8258
      5 C          12.1690    3.8390   13.3090 C.ar    1  LIG1       -0.8380
      6 C          10.7950    3.5730   13.5020 C.ar    1  LIG1        0.8091
      7 N          10.0090    4.2380   14.4310 N.pl3   1  LIG1       -0.7522
      8 H          10.2230    4.0290   15.4020 H       1  LIG1        0.3189
      9 H           9.9370    5.2430   14.2910 H       1  LIG1        0.3254
     10 C          13.0340    4.7860   13.9890 C.ar    1  LIG1        0.4495
     11 C          14.3690    4.9400   13.5580 C.ar    1  LIG1       -0.3864
     12 C          14.7930    4.0780   12.5600 C.ar    1  LIG1        0.3795
     13 H          15.8210    4.0920   12.2010 H       1  LIG1        0.0944
     14 N          14.0090    3.1610   11.9460 N.ar    1  LIG1       -0.5901
     15 C          15.3380    5.9260   14.1810 C.3     1  LIG1        0.0919
     16 H          15.7360    5.4740   15.0950 H       1  LIG1        0.0634
     17 H          14.8060    6.8450   14.4520 H       1  LIG1        0.0716
     18 N          16.3990    6.3120   13.2520 N.pl3   1  LIG1       -0.4663
     19 H          16.9360    5.5060   12.9200 H       1  LIG1        0.2819
     20 C          16.0430    7.1730   12.1970 C.ar    1  LIG1       -0.0164
     21 C          17.0090    7.4720   11.2000 C.ar    1  LIG1        0.1715
     22 C          16.6630    8.2630   10.1010 C.ar    1  LIG1       -0.1810
     23 H          17.3760    8.5110    9.3200 H       1  LIG1        0.1266
     24 C          15.3650    8.7530    9.9740 C.ar    1  LIG1       -0.1424
     25 H          15.0970    9.3630    9.1130 H       1  LIG1        0.1206
     26 C          14.4100    8.4690   10.9480 C.ar    1  LIG1       -0.2023
     27 H          13.4030    8.8670   10.8300 H       1  LIG1        0.1356
     28 C          14.7380    7.6920   12.0710 C.ar    1  LIG1        0.1295
     29 C          13.6640    7.4460   13.0980 C.3     1  LIG1       -0.1986
     30 H          13.0900    6.5520   12.8380 H       1  LIG1        0.0595
     31 H          12.9760    8.2970   13.1500 H       1  LIG1        0.0497
     32 H          14.0870    7.3270   14.1010 H       1  LIG1        0.0633
     33 O          18.2560    6.9290   11.4110 O.3     1  LIG1       -0.2444
     34 C          19.2750    7.2590   10.4700 C.3     1  LIG1       -0.0242
     35 H          20.1940    6.7550   10.7850 H       1  LIG1        0.0687
     36 H          19.4710    8.3360   10.4630 H       1  LIG1        0.0444
     37 H          19.0200    6.8930    9.4700 H       1  LIG1        0.0520
     38 C          12.5190    5.6080   15.1470 C.3     1  LIG1       -0.2135
     39 H          12.0420    4.9640   15.8900 H       1  LIG1        0.0759
     40 H          11.8190    6.3690   14.7910 H       1  LIG1        0.0607
     41 H          13.3120    6.1200   15.6980 H       1  LIG1        0.0483
     42 N          10.1050    1.0220   11.1750 N.pl3   1  LIG1       -0.8018
     43 H          10.5820    0.4850   10.4660 H       1  LIG1        0.3766
     44 H           9.1260    0.8640   11.3630 H       1  LIG1        0.3708
@<TRIPOS>BOND
     1     1     2   ar
     2     2     3   ar
     3     3     4   ar
     4     4     5   ar
     5     5     6   ar
     6     6     1   ar
     7     6     7    1
     8     7     8    1
     9     7     9    1
    10     5    10   ar
    11    10    11   ar
    12    11    12   ar
    13    12    13    1
    14    12    14   ar
    15    14     4   ar
    16    11    15    1
    17    15    16    1
    18    15    17    1
    19    15    18    1
    20    18    19    1
    21    18    20    1
    22    20    21   ar
    23    21    22   ar
    24    22    23    1
    25    22    24   ar
    26    24    25    1
    27    24    26   ar
    28    26    27    1
    29    26    28   ar
    30    28    20   ar
    31    28    29    1
    32    29    30    1
    33    29    31    1
    34    29    32    1
    35    21    33    1
    36    33    34    1
    37    34    35    1
    38    34    36    1
    39    34    37    1
    40    10    38    1
    41    38    39    1
    42    38    40    1
    43    38    41    1
    44     2    42    1
    45    42    43    1
    46    42    44    1
