@<TRIPOS>MOLECULE
9_13i
 36 38 0 0 0
SMALL
USER_CHARGES
****
From 3DB ct
@<TRIPOS>ATOM
      1 N          10.1040    2.5920   12.7740 N.ar    1  LIG1       -0.7145
      2 C          10.8080    1.9480   11.8550 C.ar    1  LIG1        0.8082
      3 N          12.0900    2.1710   11.6130 N.ar    1  LIG1       -0.6992
      4 C          12.7140    3.0900   12.3290 C.ar    1  LIG1        0.8293
      5 C          12.1020    3.8470   13.3350 C.ar    1  LIG1       -0.8411
      6 C          10.7350    3.5260   13.5010 C.ar    1  LIG1        0.8183
      7 N           9.9110    4.1440   14.4310 N.pl3   1  LIG1       -0.7542
      8 H          10.1530    3.9660   15.4020 H       1  LIG1        0.3236
      9 H           9.7630    5.1380   14.2780 H       1  LIG1        0.3197
     10 C          12.9180    4.8180   14.0400 C.ar    1  LIG1        0.4447
     11 C          14.2710    4.9700   13.6790 C.ar    1  LIG1       -0.4150
     12 C          14.7420    4.1480   12.6680 C.ar    1  LIG1        0.4416
     13 H          15.7810    4.1990   12.3420 H       1  LIG1        0.0593
     14 N          13.9950    3.2370   12.0080 N.ar    1  LIG1       -0.5964
     15 C          15.2410    5.9340   14.3200 C.3     1  LIG1       -0.1463
     16 H          15.4550    5.6340   15.3520 H       1  LIG1        0.1391
     17 H          14.7820    6.9270   14.3890 H       1  LIG1        0.0695
     18 S          16.7850    6.0660   13.3470 S.3     1  LIG1       -0.0201
     19 C          16.2190    7.1260   12.0280 C.ar    1  LIG1       -0.2243
     20 C          14.9120    7.6270   12.0080 C.ar    1  LIG1        0.0452
     21 H          14.2070    7.3800   12.7990 H       1  LIG1        0.0997
     22 C          14.4870    8.4470   10.9590 C.ar    1  LIG1       -0.2723
     23 H          13.4700    8.8350   10.9500 H       1  LIG1        0.1286
     24 C          15.3630    8.7630    9.9220 C.ar    1  LIG1        0.2753
     25 H          15.0250    9.4010    9.1080 H       1  LIG1        0.0348
     26 C          16.6600    8.2530    9.9350 C.ar    1  LIG1       -0.5521
     27 C          17.0900    7.4340   10.9790 C.ar    1  LIG1        0.3195
     28 H          18.1050    7.0420   10.9740 H       1  LIG1        0.0417
     29 CL         17.7410    8.6380    8.6500 Cl      1  LIG1        0.0955
     30 C          12.3290    5.6600   15.1470 C.3     1  LIG1       -0.1811
     31 H          11.9410    5.0200   15.9450 H       1  LIG1        0.0682
     32 H          11.5380    6.3050   14.7520 H       1  LIG1        0.0643
     33 H          13.0510    6.3220   15.6270 H       1  LIG1        0.0419
     34 N          10.1730    1.0000   11.1140 N.pl3   1  LIG1       -0.8065
     35 H          10.6810    0.4930   10.4030 H       1  LIG1        0.3801
     36 H           9.1950    0.8110   11.2770 H       1  LIG1        0.3746
@<TRIPOS>BOND
     1     1     2   ar
     2     2     3   ar
     3     3     4   ar
     4     4     5   ar
     5     5     6   ar
     6     6     1   ar
     7     6     7    1
     8     7     8    1
     9     7     9    1
    10     5    10   ar
    11    10    11   ar
    12    11    12   ar
    13    12    13    1
    14    12    14   ar
    15    14     4   ar
    16    11    15    1
    17    15    16    1
    18    15    17    1
    19    15    18    1
    20    18    19    1
    21    19    20   ar
    22    20    21    1
    23    20    22   ar
    24    22    23    1
    25    22    24   ar
    26    24    25    1
    27    24    26   ar
    28    26    27   ar
    29    27    28    1
    30    27    19   ar
    31    26    29    1
    32    10    30    1
    33    30    31    1
    34    30    32    1
    35    30    33    1
    36     2    34    1
    37    34    35    1
    38    34    36    1
