@<TRIPOS>MOLECULE
9_14a
 43 45 0 0 0
SMALL
USER_CHARGES
****
From 3DB ct
@<TRIPOS>ATOM
      1 N          10.1300    2.6220   12.8160 N.ar    1  LIG1       -0.7136
      2 C          10.7990    1.9640   11.8810 C.ar    1  LIG1        0.8069
      3 N          12.0770    2.1650   11.6020 N.ar    1  LIG1       -0.7008
      4 C          12.7340    3.0810   12.2940 C.ar    1  LIG1        0.8317
      5 C          12.1590    3.8570   13.3070 C.ar    1  LIG1       -0.8593
      6 C          10.7960    3.5510   13.5200 C.ar    1  LIG1        0.8192
      7 N          10.0110    4.1790   14.4760 N.pl3   1  LIG1       -0.7542
      8 H          10.3060    4.0300   15.4380 H       1  LIG1        0.3200
      9 H           9.8380    5.1660   14.3070 H       1  LIG1        0.3239
     10 C          13.0050    4.8280   13.9760 C.ar    1  LIG1        0.4769
     11 C          14.3600    4.9290   13.6040 C.ar    1  LIG1       -0.4135
     12 C          14.7890    4.1040   12.5780 C.ar    1  LIG1        0.4101
     13 H          15.8180    4.1440   12.2210 H       1  LIG1        0.0773
     14 N          14.0090    3.2050   11.9390 N.ar    1  LIG1       -0.5937
     15 C          15.3610    5.8820   14.2160 C.3     1  LIG1        0.0339
     16 H          15.8140    5.4080   15.0930 H       1  LIG1        0.0769
     17 H          14.8520    6.7750   14.5980 H       1  LIG1        0.0793
     18 N          16.3720    6.2330   13.2240 N.pl3   1  LIG1       -0.4770
     19 H          16.9570    5.4500   12.9320 H       1  LIG1        0.3038
     20 C          16.0210    7.1210   12.2070 C.ar    1  LIG1        0.1779
     21 C          14.7030    7.6110   12.1840 C.ar    1  LIG1       -0.2843
     22 H          13.9900    7.2530   12.9270 H       1  LIG1        0.1438
     23 C          14.2830    8.5610   11.2430 C.ar    1  LIG1        0.1611
     24 C          15.2100    9.0580   10.3280 C.ar    1  LIG1       -0.2546
     25 H          14.9190    9.8160    9.6010 H       1  LIG1        0.1348
     26 C          16.5220    8.5840   10.3330 C.ar    1  LIG1       -0.1015
     27 H          17.2260    8.9790    9.6010 H       1  LIG1        0.1248
     28 C          16.9370    7.6060   11.2560 C.ar    1  LIG1       -0.0225
     29 C          18.3600    7.1220   11.1720 C.3     1  LIG1       -0.1865
     30 H          18.7140    7.1380   10.1360 H       1  LIG1        0.0614
     31 H          18.4530    6.0880   11.5170 H       1  LIG1        0.0554
     32 H          19.0120    7.7650   11.7710 H       1  LIG1        0.0459
     33 C          12.8780    9.0870   11.2700 C.3     1  LIG1       -0.1770
     34 H          12.8100    9.9380   11.9560 H       1  LIG1        0.0552
     35 H          12.1780    8.3110   11.5970 H       1  LIG1        0.0462
     36 H          12.5620    9.4110   10.2730 H       1  LIG1        0.0547
     37 C          12.4500    5.7190   15.0610 C.3     1  LIG1       -0.2102
     38 H          12.1430    5.1210   15.9240 H       1  LIG1        0.0736
     39 H          11.6090    6.3040   14.6780 H       1  LIG1        0.0620
     40 H          13.1680    6.4530   15.4320 H       1  LIG1        0.0474
     41 N          10.1300    1.0210   11.1630 N.pl3   1  LIG1       -0.8056
     42 H          10.6110    0.5020   10.4440 H       1  LIG1        0.3778
     43 H           9.1550    0.8470   11.3550 H       1  LIG1        0.3724
@<TRIPOS>BOND
     1     1     2   ar
     2     2     3   ar
     3     3     4   ar
     4     4     5   ar
     5     5     6   ar
     6     6     1   ar
     7     6     7    1
     8     7     8    1
     9     7     9    1
    10     5    10   ar
    11    10    11   ar
    12    11    12   ar
    13    12    13    1
    14    12    14   ar
    15    14     4   ar
    16    11    15    1
    17    15    16    1
    18    15    17    1
    19    15    18    1
    20    18    19    1
    21    18    20    1
    22    20    21   ar
    23    21    22    1
    24    21    23   ar
    25    23    24   ar
    26    24    25    1
    27    24    26   ar
    28    26    27    1
    29    26    28   ar
    30    28    20   ar
    31    28    29    1
    32    29    30    1
    33    29    31    1
    34    29    32    1
    35    23    33    1
    36    33    34    1
    37    33    35    1
    38    33    36    1
    39    10    37    1
    40    37    38    1
    41    37    39    1
    42    37    40    1
    43     2    41    1
    44    41    42    1
    45    41    43    1
