@<TRIPOS>MOLECULE
9_14h
 48 50 0 0 0
SMALL
USER_CHARGES
****
From 3DB ct
@<TRIPOS>ATOM
      1 N          10.1090    2.6400   12.7790 N.ar    1  LIG1       -0.7169
      2 C          10.7890    1.9730   11.8600 C.ar    1  LIG1        0.8158
      3 N          12.0760    2.1590   11.6090 N.ar    1  LIG1       -0.7059
      4 C          12.7300    3.0610   12.3200 C.ar    1  LIG1        0.8479
      5 C          12.1470    3.8320   13.3330 C.ar    1  LIG1       -0.8923
      6 C          10.7710    3.5580   13.5010 C.ar    1  LIG1        0.8268
      7 N           9.9700    4.2040   14.4310 N.pl3   1  LIG1       -0.7505
      8 H          10.1820    3.9890   15.4020 H       1  LIG1        0.3196
      9 H           9.8850    5.2090   14.2990 H       1  LIG1        0.3215
     10 C          12.9970    4.7720   14.0390 C.ar    1  LIG1        0.5196
     11 C          14.3450    4.9080   13.6490 C.ar    1  LIG1       -0.4208
     12 C          14.7850    4.0770   12.6310 C.ar    1  LIG1        0.4029
     13 H          15.8160    4.1140   12.2820 H       1  LIG1        0.0822
     14 N          14.0110    3.1760   11.9870 N.ar    1  LIG1       -0.5985
     15 C          15.3390    5.8760   14.2620 C.3     1  LIG1       -0.0762
     16 H          15.8400    5.4210   15.1260 H       1  LIG1        0.1094
     17 H          14.7510    6.7120   14.6620 H       1  LIG1        0.0840
     18 N          16.3700    6.3220   13.3100 N.pl3   1  LIG1       -0.1873
     19 C          16.0570    7.1150   12.2110 C.ar    1  LIG1        0.1426
     20 C          14.7790    7.6740   12.0590 C.ar    1  LIG1       -0.1850
     21 H          14.0100    7.5120   12.8140 H       1  LIG1        0.1153
     22 C          14.4410    8.4780   10.9620 C.ar    1  LIG1       -0.1527
     23 H          13.4300    8.8760   10.9250 H       1  LIG1        0.1370
     24 C          15.3820    8.7470    9.9720 C.ar    1  LIG1        0.1520
     25 C          16.6720    8.2030   10.0900 C.ar    1  LIG1        0.1150
     26 C          16.9910    7.3990   11.1980 C.ar    1  LIG1       -0.2472
     27 H          17.9780    6.9530   11.2630 H       1  LIG1        0.1279
     28 O          17.5440    8.5060    9.0710 O.3     1  LIG1       -0.2262
     29 C          18.8530    7.9450    9.1340 C.3     1  LIG1       -0.0407
     30 H          19.4130    8.3110    8.2690 H       1  LIG1        0.0694
     31 H          18.8150    6.8530    9.0680 H       1  LIG1        0.0606
     32 H          19.3800    8.2730   10.0360 H       1  LIG1        0.0547
     33 O          15.1480    9.5200    8.8620 O.3     1  LIG1       -0.2969
     34 C          16.2160    9.6620    7.9280 C.3     1  LIG1        0.0903
     35 H          15.8650   10.3070    7.1170 H       1  LIG1        0.0326
     36 H          16.4870    8.6950    7.4910 H       1  LIG1        0.0325
     37 H          17.0810   10.1480    8.3900 H       1  LIG1        0.0241
     38 C          17.7800    6.0840   13.6330 C.3     1  LIG1       -0.0983
     39 H          18.1740    5.2540   13.0380 H       1  LIG1        0.0640
     40 H          17.9160    5.8390   14.6910 H       1  LIG1        0.0794
     41 H          18.3880    6.9770   13.4490 H       1  LIG1        0.0554
     42 C          12.4530    5.6080   15.1710 C.3     1  LIG1       -0.2197
     43 H          11.9850    4.9700   15.9260 H       1  LIG1        0.0711
     44 H          11.7370    6.3430   14.7900 H       1  LIG1        0.0666
     45 H          13.2250    6.1600   15.7110 H       1  LIG1        0.0531
     46 N          10.1250    1.0390   11.1270 N.pl3   1  LIG1       -0.8127
     47 H          10.6160    0.5120   10.4190 H       1  LIG1        0.3801
     48 H           9.1440    0.8750   11.2970 H       1  LIG1        0.3743
@<TRIPOS>BOND
     1     1     2   ar
     2     2     3   ar
     3     3     4   ar
     4     4     5   ar
     5     5     6   ar
     6     6     1   ar
     7     6     7    1
     8     7     8    1
     9     7     9    1
    10     5    10   ar
    11    10    11   ar
    12    11    12   ar
    13    12    13    1
    14    12    14   ar
    15    14     4   ar
    16    11    15    1
    17    15    16    1
    18    15    17    1
    19    15    18    1
    20    18    19    1
    21    19    20   ar
    22    20    21    1
    23    20    22   ar
    24    22    23    1
    25    22    24   ar
    26    24    25   ar
    27    25    26   ar
    28    26    27    1
    29    26    19   ar
    30    25    28    1
    31    28    29    1
    32    29    30    1
    33    29    31    1
    34    29    32    1
    35    24    33    1
    36    33    34    1
    37    34    35    1
    38    34    36    1
    39    34    37    1
    40    18    38    1
    41    38    39    1
    42    38    40    1
    43    38    41    1
    44    10    42    1
    45    42    43    1
    46    42    44    1
    47    42    45    1
    48     2    46    1
    49    46    47    1
    50    46    48    1
