@<TRIPOS>MOLECULE
9_14c
 44 46 0 0 0
SMALL
USER_CHARGES
****
From 3DB ct
@<TRIPOS>ATOM
      1 N          10.1230    2.6220   12.8010 N.ar    1  LIG1       -0.7099
      2 C          10.7990    1.9690   11.8690 C.ar    1  LIG1        0.8007
      3 N          12.0800    2.1690   11.6030 N.ar    1  LIG1       -0.6990
      4 C          12.7330    3.0790   12.3060 C.ar    1  LIG1        0.8367
      5 C          12.1490    3.8510   13.3190 C.ar    1  LIG1       -0.8548
      6 C          10.7830    3.5460   13.5160 C.ar    1  LIG1        0.8127
      7 N           9.9910    4.1680   14.4700 N.pl3   1  LIG1       -0.7526
      8 H          10.2710    4.0000   15.4330 H       1  LIG1        0.3197
      9 H           9.8340    5.1610   14.3150 H       1  LIG1        0.3236
     10 C          12.9900    4.8160   14.0010 C.ar    1  LIG1        0.4752
     11 C          14.3470    4.9240   13.6360 C.ar    1  LIG1       -0.4314
     12 C          14.7860    4.1000   12.6130 C.ar    1  LIG1        0.4105
     13 H          15.8180    4.1400   12.2650 H       1  LIG1        0.0857
     14 N          14.0110    3.2030   11.9650 N.ar    1  LIG1       -0.6010
     15 C          15.3380    5.8840   14.2590 C.3     1  LIG1        0.0870
     16 H          15.8380    5.3900   15.1020 H       1  LIG1        0.0735
     17 H          14.7950    6.7420   14.6690 H       1  LIG1        0.0613
     18 N          16.3210    6.2880   13.2700 N.pl3   1  LIG1       -0.4651
     19 H          17.2670    5.9390   13.4080 H       1  LIG1        0.2871
     20 C          16.0920    7.1010   12.1690 C.ar    1  LIG1        0.0954
     21 C          14.7880    7.6230   12.0360 C.ar    1  LIG1       -0.2148
     22 H          14.0380    7.3760   12.7880 H       1  LIG1        0.1382
     23 C          14.4140    8.4480   10.9660 C.ar    1  LIG1        0.1167
     24 C          15.3710    8.7880   10.0150 C.ar    1  LIG1       -0.2317
     25 H          15.1170    9.4430    9.1830 H       1  LIG1        0.1392
     26 C          16.6710    8.2880   10.1180 C.ar    1  LIG1       -0.1484
     27 H          17.3760    8.5830    9.3440 H       1  LIG1        0.1216
     28 C          17.0420    7.4460   11.1790 C.ar    1  LIG1        0.1316
     29 O          18.3080    6.9320   11.3140 O.3     1  LIG1       -0.2533
     30 C          19.2970    7.3250   10.3650 C.3     1  LIG1       -0.0049
     31 H          20.2260    6.8050   10.6200 H       1  LIG1        0.0651
     32 H          19.4910    8.4010   10.4230 H       1  LIG1        0.0405
     33 H          19.0140    7.0220    9.3520 H       1  LIG1        0.0479
     34 C          13.0220    9.0020   10.8830 C.3     1  LIG1       -0.1829
     35 H          12.9620    9.9470   11.4310 H       1  LIG1        0.0570
     36 H          12.2960    8.3000   11.3060 H       1  LIG1        0.0472
     37 H          12.7330    9.1770    9.8410 H       1  LIG1        0.0570
     38 C          12.4280    5.6990   15.0890 C.3     1  LIG1       -0.2064
     39 H          12.0920    5.0910   15.9330 H       1  LIG1        0.0717
     40 H          11.6060    6.3050   14.6980 H       1  LIG1        0.0632
     41 H          13.1520    6.4100   15.4920 H       1  LIG1        0.0456
     42 N          10.1350    1.0320   11.1390 N.pl3   1  LIG1       -0.8043
     43 H          10.6200    0.5170   10.4190 H       1  LIG1        0.3774
     44 H           9.1570    0.8580   11.3200 H       1  LIG1        0.3716
@<TRIPOS>BOND
     1     1     2   ar
     2     2     3   ar
     3     3     4   ar
     4     4     5   ar
     5     5     6   ar
     6     6     1   ar
     7     6     7    1
     8     7     8    1
     9     7     9    1
    10     5    10   ar
    11    10    11   ar
    12    11    12   ar
    13    12    13    1
    14    12    14   ar
    15    14     4   ar
    16    11    15    1
    17    15    16    1
    18    15    17    1
    19    15    18    1
    20    18    19    1
    21    18    20    1
    22    20    21   ar
    23    21    22    1
    24    21    23   ar
    25    23    24   ar
    26    24    25    1
    27    24    26   ar
    28    26    27    1
    29    26    28   ar
    30    28    20   ar
    31    28    29    1
    32    29    30    1
    33    30    31    1
    34    30    32    1
    35    30    33    1
    36    23    34    1
    37    34    35    1
    38    34    36    1
    39    34    37    1
    40    10    38    1
    41    38    39    1
    42    38    40    1
    43    38    41    1
    44     2    42    1
    45    42    43    1
    46    42    44    1
