@<TRIPOS>MOLECULE
9_14m
 46 49 0 0 0
SMALL
USER_CHARGES
****
From 3DB ct
@<TRIPOS>ATOM
      1 N          10.1220    2.6270   12.8020 N.ar    1  LIG1       -0.7117
      2 C          10.7980    1.9630   11.8760 C.ar    1  LIG1        0.8131
      3 N          12.0790    2.1600   11.6080 N.ar    1  LIG1       -0.7063
      4 C          12.7320    3.0740   12.3040 C.ar    1  LIG1        0.8283
      5 C          12.1540    3.8490   13.3160 C.ar    1  LIG1       -0.8535
      6 C          10.7840    3.5570   13.5090 C.ar    1  LIG1        0.8068
      7 N           9.9900    4.1970   14.4490 N.pl3   1  LIG1       -0.7525
      8 H          10.2380    4.0100   15.4180 H       1  LIG1        0.3209
      9 H           9.8700    5.1950   14.3000 H       1  LIG1        0.3233
     10 C          13.0000    4.8090   13.9980 C.ar    1  LIG1        0.5013
     11 C          14.3470    4.9420   13.6030 C.ar    1  LIG1       -0.4442
     12 C          14.7830    4.1060   12.5880 C.ar    1  LIG1        0.4154
     13 H          15.8110    4.1470   12.2310 H       1  LIG1        0.0640
     14 N          14.0090    3.1970   11.9570 N.ar    1  LIG1       -0.5863
     15 C          15.3380    5.9200   14.2000 C.3     1  LIG1        0.0208
     16 H          15.7780    5.5080   15.1180 H       1  LIG1        0.0884
     17 H          14.7810    6.8130   14.5150 H       1  LIG1        0.0508
     18 N          16.4070    6.2560   13.2460 N.pl3   1  LIG1       -0.2605
     19 C          16.0650    7.1100   12.1780 C.ar    1  LIG1        0.1894
     20 C          14.7660    7.6390   12.0800 C.ar    1  LIG1       -0.2029
     21 H          14.0110    7.3940   12.8240 H       1  LIG1        0.1227
     22 C          14.4160    8.5050   11.0470 C.ar    1  LIG1       -0.0821
     23 H          13.4060    8.9060   10.9910 H       1  LIG1        0.1108
     24 C          15.3620    8.8640   10.0910 C.ar    1  LIG1       -0.2342
     25 H          15.0660    9.5440    9.2920 H       1  LIG1        0.1334
     26 C          16.6690    8.3620   10.1520 C.ar    1  LIG1        0.1862
     27 C          17.0370    7.4770   11.1980 C.ar    1  LIG1       -0.0769
     28 C          18.3630    6.9870   11.2030 C.ar    1  LIG1       -0.0695
     29 H          18.6850    6.2950   11.9800 H       1  LIG1        0.1008
     30 C          19.2910    7.3600   10.2270 C.ar    1  LIG1       -0.1470
     31 H          20.3040    6.9650   10.2610 H       1  LIG1        0.1141
     32 C          18.9150    8.2330    9.2150 C.ar    1  LIG1       -0.0458
     33 H          19.6330    8.5280    8.4520 H       1  LIG1        0.0988
     34 C          17.6120    8.7300    9.1770 C.ar    1  LIG1       -0.2316
     35 H          17.3370    9.4110    8.3720 H       1  LIG1        0.1280
     36 C          17.6010    6.0940   13.5690 C.3     1  LIG1       -0.0860
     37 H          18.2970    6.1790   12.7280 H       1  LIG1        0.0741
     38 H          17.7490    5.1000   14.0020 H       1  LIG1        0.0591
     39 H          17.8760    6.8400   14.3230 H       1  LIG1        0.0353
     40 C          12.4540    5.6620   15.1170 C.3     1  LIG1       -0.2281
     41 H          12.0500    5.0310   15.9130 H       1  LIG1        0.0752
     42 H          11.6850    6.3410   14.7360 H       1  LIG1        0.0647
     43 H          13.2100    6.2850   15.5990 H       1  LIG1        0.0531
     44 N          10.1330    1.0190   11.1560 N.pl3   1  LIG1       -0.8126
     45 H          10.6180    0.4950   10.4440 H       1  LIG1        0.3800
     46 H           9.1550    0.8480   11.3400 H       1  LIG1        0.3729
@<TRIPOS>BOND
     1     1     2   ar
     2     2     3   ar
     3     3     4   ar
     4     4     5   ar
     5     5     6   ar
     6     6     1   ar
     7     6     7    1
     8     7     8    1
     9     7     9    1
    10     5    10   ar
    11    10    11   ar
    12    11    12   ar
    13    12    13    1
    14    12    14   ar
    15    14     4   ar
    16    11    15    1
    17    15    16    1
    18    15    17    1
    19    15    18    1
    20    18    19    1
    21    19    20   ar
    22    20    21    1
    23    20    22   ar
    24    22    23    1
    25    22    24   ar
    26    24    25    1
    27    24    26   ar
    28    26    27   ar
    29    27    19   ar
    30    27    28   ar
    31    28    29    1
    32    28    30   ar
    33    30    31    1
    34    30    32   ar
    35    32    33    1
    36    32    34   ar
    37    34    35    1
    38    34    26   ar
    39    18    36    1
    40    36    37    1
    41    36    38    1
    42    36    39    1
    43    10    40    1
    44    40    41    1
    45    40    42    1
    46    40    43    1
    47     2    44    1
    48    44    45    1
    49    44    46    1
