@<TRIPOS>MOLECULE
11_14
 46 48 0 0 0
SMALL
USER_CHARGES
****
From 3DB ct
@<TRIPOS>ATOM
      1 C          25.4820   21.5030   17.2320 C.ar    1  LIG1       -0.5995
      2 C          26.4370   22.0720   16.4020 C.ar    1  LIG1        0.4557
      3 N          27.7370   22.0490   16.8940 N.ar    1  LIG1       -0.5484
      4 C          27.7840   21.4440   18.0650 C.ar    1  LIG1        0.0463
      5 S          26.2560   20.8900   18.6400 S.2     1  LIG1        0.1932
      6 C          29.0640   21.2380   18.8760 C.3     1  LIG1        0.5992
      7 C          30.2640   21.8430   18.1160 C.3     1  LIG1       -0.3764
      8 H          31.1970   21.7090   18.6750 H       1  LIG1        0.0853
      9 H          30.1310   22.9190   17.9480 H       1  LIG1        0.0936
     10 H          30.3960   21.3700   17.1350 H       1  LIG1        0.0922
     11 C          29.3410   19.7380   19.0830 C.3     1  LIG1       -0.4206
     12 H          30.2960   19.5800   19.6000 H       1  LIG1        0.1119
     13 H          29.3890   19.2060   18.1250 H       1  LIG1        0.0954
     14 H          28.5640   19.2570   19.6880 H       1  LIG1        0.0898
     15 C          28.9650   21.9420   20.2420 C.3     1  LIG1       -0.4225
     16 H          29.9070   21.8620   20.7970 H       1  LIG1        0.1119
     17 H          28.1810   21.5050   20.8720 H       1  LIG1        0.0914
     18 H          28.7360   23.0080   20.1230 H       1  LIG1        0.0945
     19 C          26.1680   22.6900   15.1090 C.ar    1  LIG1       -0.1131
     20 C          25.6720   21.9450   14.0280 C.ar    1  LIG1       -0.0157
     21 H          25.4770   20.8790   14.1260 H       1  LIG1        0.1149
     22 C          25.4290   22.5620   12.7980 C.ar    1  LIG1       -0.4080
     23 H          25.0420   21.9880   11.9610 H       1  LIG1        0.2311
     24 C          25.6910   23.9190   12.6460 C.ar    1  LIG1        0.5574
     25 C          26.1970   24.6710   13.6990 C.ar    1  LIG1       -0.3579
     26 H          26.4020   25.7290   13.5620 H       1  LIG1        0.2189
     27 C          26.4400   24.0550   14.9300 C.ar    1  LIG1       -0.0768
     28 H          26.8390   24.6490   15.7510 H       1  LIG1        0.1911
     29 F          25.4590   24.5080   11.4660 F       1  LIG1       -0.3635
     30 C          24.0250   21.4000   17.1130 C.ar    1  LIG1        0.4174
     31 C          23.3100   20.4290   17.8320 C.ar    1  LIG1       -0.1916
     32 H          23.8300   19.7330   18.4890 H       1  LIG1        0.1730
     33 C          21.9210   20.3290   17.7080 C.ar    1  LIG1       -0.0832
     34 H          21.3880   19.5660   18.2720 H       1  LIG1        0.1958
     35 C          21.2390   21.2090   16.8650 C.ar    1  LIG1       -0.4923
     36 C          21.9350   22.1750   16.1350 C.ar    1  LIG1       -0.0492
     37 H          21.4120   22.8580   15.4690 H       1  LIG1        0.2024
     38 C          23.3240   22.2700   16.2640 C.ar    1  LIG1       -0.2737
     39 H          23.8540   23.0320   15.6940 H       1  LIG1        0.1892
     40 S          19.4740   21.0740   16.6870 S.O2    1  LIG1        2.2020
     41 O          18.9400   22.4140   16.4650 O.2     1  LIG1       -0.9728
     42 O          18.9680   20.3030   17.8190 O.2     1  LIG1       -0.9717
     43 C          19.2730   20.1210   15.2050 C.3     1  LIG1       -0.7587
     44 H          18.2030   19.9950   15.0260 H       1  LIG1        0.2476
     45 H          19.7440   19.1460   15.3420 H       1  LIG1        0.1990
     46 H          19.7280   20.6600   14.3720 H       1  LIG1        0.1958
@<TRIPOS>BOND
     1     1     2   ar
     2     2     3   ar
     3     3     4   ar
     4     4     5   ar
     5     5     1   ar
     6     4     6    1
     7     6     7    1
     8     7     8    1
     9     7     9    1
    10     7    10    1
    11     6    11    1
    12    11    12    1
    13    11    13    1
    14    11    14    1
    15     6    15    1
    16    15    16    1
    17    15    17    1
    18    15    18    1
    19     2    19    1
    20    19    20   ar
    21    20    21    1
    22    20    22   ar
    23    22    23    1
    24    22    24   ar
    25    24    25   ar
    26    25    26    1
    27    25    27   ar
    28    27    28    1
    29    27    19   ar
    30    24    29    1
    31     1    30    1
    32    30    31   ar
    33    31    32    1
    34    31    33   ar
    35    33    34    1
    36    33    35   ar
    37    35    36   ar
    38    36    37    1
    39    36    38   ar
    40    38    39    1
    41    38    30   ar
    42    35    40    1
    43    40    41    2
    44    40    42    2
    45    40    43    1
    46    43    44    1
    47    43    45    1
    48    43    46    1
