@<TRIPOS>MOLECULE
12_5a
 36 38 0 0 0
SMALL
USER_CHARGES
****
From 3DB ct
@<TRIPOS>ATOM
      1 C          25.4820   21.5030   17.2320 C.ar    1  LIG1       -0.6992
      2 C          26.4390   22.0720   16.4020 C.ar    1  LIG1        0.4218
      3 N          27.7410   22.0470   16.8940 N.ar    1  LIG1       -0.5684
      4 C          27.7700   21.4410   18.0610 C.ar    1  LIG1        0.2789
      5 S          26.2550   20.8870   18.6430 S.2     1  LIG1        0.1755
      6 C          29.0000   21.2250   18.8710 C.3     1  LIG1       -0.2236
      7 H          28.9180   21.7200   19.8440 H       1  LIG1        0.0941
      8 H          29.8730   21.6370   18.3560 H       1  LIG1        0.1024
      9 H          29.1770   20.1570   19.0330 H       1  LIG1        0.0942
     10 C          26.1690   22.6910   15.1090 C.ar    1  LIG1        0.0111
     11 C          25.6680   21.9480   14.0300 C.ar    1  LIG1       -0.1156
     12 H          25.4730   20.8810   14.1290 H       1  LIG1        0.1075
     13 C          25.4210   22.5640   12.8010 C.ar    1  LIG1       -0.1678
     14 H          25.0290   21.9810   11.9700 H       1  LIG1        0.1561
     15 C          25.6790   23.9240   12.6360 C.ar    1  LIG1       -0.1324
     16 H          25.4860   24.4030   11.6780 H       1  LIG1        0.1498
     17 C          26.1910   24.6690   13.6970 C.ar    1  LIG1       -0.1368
     18 H          26.3990   25.7300   13.5680 H       1  LIG1        0.1468
     19 C          26.4390   24.0540   14.9270 C.ar    1  LIG1       -0.1658
     20 H          26.8410   24.6480   15.7460 H       1  LIG1        0.1823
     21 C          24.0250   21.4000   17.1130 C.ar    1  LIG1        0.5798
     22 C          23.3100   20.4300   17.8330 C.ar    1  LIG1       -0.2119
     23 H          23.8290   19.7330   18.4900 H       1  LIG1        0.1722
     24 C          21.9200   20.3310   17.7100 C.ar    1  LIG1       -0.0600
     25 H          21.3860   19.5700   18.2750 H       1  LIG1        0.2067
     26 C          21.2370   21.2100   16.8670 C.ar    1  LIG1       -0.5964
     27 C          21.9340   22.1760   16.1370 C.ar    1  LIG1        0.0461
     28 H          21.4080   22.8590   15.4740 H       1  LIG1        0.1929
     29 C          23.3230   22.2700   16.2650 C.ar    1  LIG1       -0.3751
     30 H          23.8530   23.0330   15.6950 H       1  LIG1        0.2088
     31 S          19.4800   21.0740   16.6800 S.O2    1  LIG1        2.4809
     32 O          18.9500   22.3280   16.1740 O.2     1  LIG1       -1.0085
     33 O          18.9200   20.4660   17.8740 O.2     1  LIG1       -1.0023
     34 N          19.3460   19.9530   15.4430 N.3     1  LIG1       -1.3077
     35 H          18.8880   20.3610   14.6230 H       1  LIG1        0.4825
     36 H          18.8610   19.1100   15.7600 H       1  LIG1        0.4814
@<TRIPOS>BOND
     1     1     2   ar
     2     2     3   ar
     3     3     4   ar
     4     4     5   ar
     5     5     1   ar
     6     4     6    1
     7     6     7    1
     8     6     8    1
     9     6     9    1
    10     2    10    1
    11    10    11   ar
    12    11    12    1
    13    11    13   ar
    14    13    14    1
    15    13    15   ar
    16    15    16    1
    17    15    17   ar
    18    17    18    1
    19    17    19   ar
    20    19    20    1
    21    19    10   ar
    22     1    21    1
    23    21    22   ar
    24    22    23    1
    25    22    24   ar
    26    24    25    1
    27    24    26   ar
    28    26    27   ar
    29    27    28    1
    30    27    29   ar
    31    29    30    1
    32    29    21   ar
    33    26    31    1
    34    31    32    2
    35    31    33    2
    36    31    34    1
    37    34    35    1
    38    34    36    1
