@<TRIPOS>MOLECULE
13_7c
 44 46 0 0 0
SMALL
USER_CHARGES
****
From 3DB ct
@<TRIPOS>ATOM
      1 C          25.8040   23.8970   12.6080 C.ar    1  LIG1        0.5885
      2 C          25.5490   22.5400   12.7780 C.ar    1  LIG1       -0.4098
      3 H          25.1880   21.9480   11.9420 H       1  LIG1        0.2341
      4 C          25.7590   21.9500   14.0260 C.ar    1  LIG1       -0.0911
      5 H          25.5550   20.8890   14.1530 H       1  LIG1        0.1768
      6 C          26.2260   22.7240   15.0970 C.ar    1  LIG1        0.0366
      7 C          26.4740   24.0910   14.9130 C.ar    1  LIG1       -0.0401
      8 H          26.8280   24.7080   15.7370 H       1  LIG1        0.1619
      9 C          26.2630   24.6770   13.6630 C.ar    1  LIG1       -0.3998
     10 H          26.4530   25.7360   13.5120 H       1  LIG1        0.2320
     11 C          26.4280   22.1120   16.3950 C.ar    1  LIG1       -0.1681
     12 C          25.4830   21.5190   17.2880 C.ar    1  LIG1        0.2125
     13 N          26.1090   21.0080   18.3610 N.ar    1  LIG1       -0.3273
     14 N          27.4190   21.2790   18.1630 N.ar    1  LIG1        0.0106
     15 C          27.6700   21.9160   16.9780 C.ar    1  LIG1       -0.4452
     16 C          29.0450   22.2330   16.5450 C.3     1  LIG1        1.6519
     17 F          29.1060   22.9490   15.3900 F       1  LIG1       -0.4701
     18 F          29.7790   21.1070   16.3300 F       1  LIG1       -0.4661
     19 F          29.7200   22.9610   17.4770 F       1  LIG1       -0.4822
     20 C          28.3700   20.8550   19.1810 C.3     1  LIG1        0.1859
     21 H          27.8600   20.8280   20.1480 H       1  LIG1        0.0687
     22 H          29.1450   21.6280   19.2450 H       1  LIG1        0.0486
     23 C          28.9910   19.5050   18.8630 C.3     1  LIG1       -0.1166
     24 H          29.6970   19.2170   19.6470 H       1  LIG1        0.0529
     25 H          29.5310   19.5340   17.9110 H       1  LIG1        0.0433
     26 H          28.2260   18.7250   18.7870 H       1  LIG1        0.0589
     27 C          24.0270   21.4110   17.1540 C.ar    1  LIG1        0.1108
     28 C          23.3090   22.2720   16.3110 C.ar    1  LIG1       -0.2015
     29 H          23.8160   23.0540   15.7490 H       1  LIG1        0.1611
     30 C          21.9210   22.1540   16.1850 C.ar    1  LIG1       -0.0099
     31 H          21.3860   22.8310   15.5220 H       1  LIG1        0.1839
     32 C          21.2410   21.1780   16.9160 C.ar    1  LIG1       -0.5139
     33 C          21.9380   20.3120   17.7610 C.ar    1  LIG1       -0.0073
     34 H          21.4190   19.5440   18.3310 H       1  LIG1        0.1773
     35 C          23.3260   20.4360   17.8820 C.ar    1  LIG1       -0.2148
     36 H          23.8600   19.7560   18.5450 H       1  LIG1        0.1963
     37 S          19.4790   21.0140   16.7380 S.O2    1  LIG1        2.1855
     38 O          18.9200   22.3470   16.5340 O.2     1  LIG1       -0.9714
     39 O          18.9880   20.2200   17.8600 O.2     1  LIG1       -0.9713
     40 C          19.2910   20.0790   15.2430 C.3     1  LIG1       -0.7100
     41 H          18.2240   19.9360   15.0630 H       1  LIG1        0.2352
     42 H          19.7800   19.1100   15.3640 H       1  LIG1        0.1852
     43 H          19.7360   20.6370   14.4160 H       1  LIG1        0.1827
     44 F          25.6010   24.4610   11.4100 F       1  LIG1       -0.3649
@<TRIPOS>BOND
     1     1     2   ar
     2     2     3    1
     3     2     4   ar
     4     4     5    1
     5     4     6   ar
     6     6     7   ar
     7     7     8    1
     8     7     9   ar
     9     9    10    1
    10     9     1   ar
    11     6    11    1
    12    11    12   ar
    13    12    13   ar
    14    13    14   ar
    15    14    15   ar
    16    15    11   ar
    17    15    16    1
    18    16    17    1
    19    16    18    1
    20    16    19    1
    21    14    20    1
    22    20    21    1
    23    20    22    1
    24    20    23    1
    25    23    24    1
    26    23    25    1
    27    23    26    1
    28    12    27    1
    29    27    28   ar
    30    28    29    1
    31    28    30   ar
    32    30    31    1
    33    30    32   ar
    34    32    33   ar
    35    33    34    1
    36    33    35   ar
    37    35    36    1
    38    35    27   ar
    39    32    37    1
    40    37    38    2
    41    37    39    2
    42    37    40    1
    43    40    41    1
    44    40    42    1
    45    40    43    1
    46     1    44    1
