@<TRIPOS>MOLECULE
1_1
 39 41 0 0 0
SMALL
USER_CHARGES
****
From 3DB ct
@<TRIPOS>ATOM
      1 C          27.7050   22.0400   17.0240 C.ar    1  LIG1        0.1952
      2 N          26.4400   22.0980   16.4320 N.ar    1  LIG1       -0.2040
      3 C          25.5380   21.4420   17.2830 C.ar    1  LIG1       -0.1999
      4 C          26.2530   20.9750   18.3750 C.ar    1  LIG1       -0.1879
      5 H          25.8310   20.4350   19.2160 H       1  LIG1        0.2074
      6 C          27.5940   21.3610   18.2220 C.ar    1  LIG1       -0.3977
      7 H          28.4100   21.1480   18.9040 H       1  LIG1        0.2455
      8 C          24.0820   21.3670   17.1080 C.ar    1  LIG1        0.3032
      9 C          23.4100   22.2670   16.2670 C.ar    1  LIG1       -0.2516
     10 H          23.9630   23.0300   15.7210 H       1  LIG1        0.1868
     11 C          22.0220   22.2010   16.1200 C.ar    1  LIG1       -0.0314
     12 H          21.5210   22.9040   15.4570 H       1  LIG1        0.1914
     13 C          21.2980   21.2410   16.8310 C.ar    1  LIG1       -0.5132
     14 C          21.9510   20.3400   17.6750 C.ar    1  LIG1       -0.0466
     15 H          21.3960   19.5860   18.2290 H       1  LIG1        0.1872
     16 C          23.3400   20.4120   17.8170 C.ar    1  LIG1       -0.2344
     17 H          23.8400   19.7080   18.4820 H       1  LIG1        0.1858
     18 S          19.5330   21.1460   16.6310 S.O2    1  LIG1        2.2002
     19 O          19.0410   22.4850   16.3230 O.2     1  LIG1       -0.9757
     20 O          18.9870   20.4580   17.7970 O.2     1  LIG1       -0.9756
     21 C          19.3260   20.1150   15.2040 C.3     1  LIG1       -0.7175
     22 H          18.2560   20.0120   15.0130 H       1  LIG1        0.2325
     23 H          19.7630   19.1360   15.4050 H       1  LIG1        0.1877
     24 H          19.8110   20.5900   14.3490 H       1  LIG1        0.1847
     25 C          26.1320   22.6820   15.1630 C.ar    1  LIG1        0.2180
     26 C          26.3690   24.0460   14.9360 C.ar    1  LIG1       -0.1539
     27 H          26.7480   24.6960   15.7200 H       1  LIG1        0.1961
     28 C          26.0630   24.6120   13.6960 C.ar    1  LIG1       -0.3525
     29 H          26.2340   25.6700   13.5170 H       1  LIG1        0.2323
     30 C          25.5240   23.8180   12.6910 C.ar    1  LIG1        0.5437
     31 C          25.2820   22.4660   12.9010 C.ar    1  LIG1       -0.3700
     32 H          24.8660   21.8590   12.1020 H       1  LIG1        0.2346
     33 C          25.5850   21.8940   14.1390 C.ar    1  LIG1       -0.1566
     34 H          25.4190   20.8270   14.2700 H       1  LIG1        0.1918
     35 F          25.2310   24.3640   11.5030 F       1  LIG1       -0.3607
     36 C          28.9650   22.5440   16.4020 C.3     1  LIG1       -0.3195
     37 H          29.8340   22.0390   16.8400 H       1  LIG1        0.1142
     38 H          29.0870   23.6160   16.5860 H       1  LIG1        0.1012
     39 H          28.9950   22.3510   15.3260 H       1  LIG1        0.1089
@<TRIPOS>BOND
     1     1     2   ar
     2     2     3   ar
     3     3     4   ar
     4     4     5    1
     5     4     6   ar
     6     6     7    1
     7     6     1   ar
     8     3     8    1
     9     8     9   ar
    10     9    10    1
    11     9    11   ar
    12    11    12    1
    13    11    13   ar
    14    13    14   ar
    15    14    15    1
    16    14    16   ar
    17    16    17    1
    18    16     8   ar
    19    13    18    1
    20    18    19    2
    21    18    20    2
    22    18    21    1
    23    21    22    1
    24    21    23    1
    25    21    24    1
    26     2    25    1
    27    25    26   ar
    28    26    27    1
    29    26    28   ar
    30    28    29    1
    31    28    30   ar
    32    30    31   ar
    33    31    32    1
    34    31    33   ar
    35    33    34    1
    36    33    25   ar
    37    30    35    1
    38     1    36    1
    39    36    37    1
    40    36    38    1
    41    36    39    1
