@<TRIPOS>MOLECULE
1_41
 46 48 0 0 0
SMALL
USER_CHARGES
****
From 3DB ct
@<TRIPOS>ATOM
      1 N          26.4480   22.0490   16.4120 N.ar    1  LIG1       -0.2047
      2 C          25.5300   21.5460   17.3400 C.ar    1  LIG1       -0.2506
      3 C          26.2500   21.0490   18.4120 C.ar    1  LIG1       -0.2347
      4 H          25.8130   20.5680   19.2800 H       1  LIG1        0.2447
      5 C          27.6350   21.2330   18.1680 C.ar    1  LIG1       -0.0102
      6 C          27.7350   21.8740   16.9350 C.ar    1  LIG1        0.0995
      7 C          28.9750   22.3860   16.2680 C.3     1  LIG1       -0.2822
      8 H          29.7620   22.5810   17.0030 H       1  LIG1        0.0985
      9 H          28.7990   23.3340   15.7500 H       1  LIG1        0.1077
     10 H          29.3620   21.6490   15.5590 H       1  LIG1        0.1175
     11 C          28.7380   20.8030   19.1140 C.3     1  LIG1       -0.1884
     12 H          29.6110   20.4820   18.5380 H       1  LIG1        0.1636
     13 C          29.1530   21.9130   20.1090 C.3     1  LIG1        1.3279
     14 F          28.1270   22.3090   20.9060 F       1  LIG1       -0.4145
     15 F          30.1390   21.4710   20.9390 F       1  LIG1       -0.4392
     16 F          29.6360   23.0220   19.4940 F       1  LIG1       -0.4393
     17 O          28.2350   19.6910   19.8960 O.3     1  LIG1       -0.5374
     18 H          28.9720   19.4420   20.4930 H       1  LIG1        0.4085
     19 C          24.0780   21.4470   17.1570 C.ar    1  LIG1        0.3740
     20 C          23.4040   22.2990   16.2700 C.ar    1  LIG1       -0.2966
     21 H          23.9510   23.0530   15.7060 H       1  LIG1        0.1958
     22 C          22.0210   22.1940   16.0950 C.ar    1  LIG1       -0.0039
     23 H          21.5170   22.8680   15.4060 H       1  LIG1        0.1899
     24 C          21.3080   21.2270   16.8070 C.ar    1  LIG1       -0.4913
     25 C          21.9680   20.3540   17.6750 C.ar    1  LIG1       -0.0773
     26 H          21.4210   19.5900   18.2230 H       1  LIG1        0.1892
     27 C          23.3510   20.4660   17.8460 C.ar    1  LIG1       -0.2502
     28 H          23.8560   19.7850   18.5300 H       1  LIG1        0.2003
     29 S          19.5500   21.0760   16.5810 S.O2    1  LIG1        2.1849
     30 O          19.0200   22.4070   16.3000 O.2     1  LIG1       -0.9714
     31 O          19.0100   20.3400   17.7210 O.2     1  LIG1       -0.9682
     32 C          19.4000   20.0730   15.1270 C.3     1  LIG1       -0.7314
     33 H          18.3370   19.9290   14.9220 H       1  LIG1        0.2392
     34 H          19.8780   19.1080   15.3090 H       1  LIG1        0.1949
     35 H          19.8730   20.5880   14.2890 H       1  LIG1        0.1855
     36 C          26.1250   22.6650   15.1620 C.ar    1  LIG1        0.2734
     37 C          25.5470   21.9100   14.1310 C.ar    1  LIG1       -0.1689
     38 H          25.3000   20.8600   14.2670 H       1  LIG1        0.1949
     39 C          25.2260   22.5180   12.9150 C.ar    1  LIG1       -0.3678
     40 H          24.7700   21.9410   12.1150 H       1  LIG1        0.2392
     41 C          25.4810   23.8720   12.7340 C.ar    1  LIG1        0.5464
     42 C          26.0510   24.6340   13.7470 C.ar    1  LIG1       -0.3296
     43 H          26.2480   25.6900   13.5850 H       1  LIG1        0.2318
     44 C          26.3740   24.0320   14.9660 C.ar    1  LIG1       -0.2088
     45 H          26.8490   24.6390   15.7330 H       1  LIG1        0.2182
     46 F          25.1720   24.4510   11.5660 F       1  LIG1       -0.3584
@<TRIPOS>BOND
     1     1     2   ar
     2     2     3   ar
     3     3     4    1
     4     3     5   ar
     5     5     6   ar
     6     6     1   ar
     7     6     7    1
     8     7     8    1
     9     7     9    1
    10     7    10    1
    11     5    11    1
    12    11    12    1
    13    11    13    1
    14    13    14    1
    15    13    15    1
    16    13    16    1
    17    11    17    1
    18    17    18    1
    19     2    19    1
    20    19    20   ar
    21    20    21    1
    22    20    22   ar
    23    22    23    1
    24    22    24   ar
    25    24    25   ar
    26    25    26    1
    27    25    27   ar
    28    27    28    1
    29    27    19   ar
    30    24    29    1
    31    29    30    2
    32    29    31    2
    33    29    32    1
    34    32    33    1
    35    32    34    1
    36    32    35    1
    37     1    36    1
    38    36    37   ar
    39    37    38    1
    40    37    39   ar
    41    39    40    1
    42    39    41   ar
    43    41    42   ar
    44    42    43    1
    45    42    44   ar
    46    44    45    1
    47    44    36   ar
    48    41    46    1
