@<TRIPOS>MOLECULE
1_9
 39 41 0 0 0
SMALL
USER_CHARGES
****
From 3DB ct
@<TRIPOS>ATOM
      1 N          26.4440   22.0460   16.4060 N.ar    1  LIG1       -0.0712
      2 C          25.5270   21.5470   17.3420 C.ar    1  LIG1       -0.2943
      3 C          26.2480   21.0700   18.4250 C.ar    1  LIG1       -0.1795
      4 H          25.8210   20.6110   19.3100 H       1  LIG1        0.2095
      5 C          27.6160   21.2460   18.1560 C.ar    1  LIG1       -0.3628
      6 H          28.4420   20.9780   18.8060 H       1  LIG1        0.2424
      7 C          27.7290   21.8550   16.9220 C.ar    1  LIG1        0.1248
      8 C          28.9900   22.3300   16.2790 C.3     1  LIG1       -0.2794
      9 H          29.7830   22.4330   17.0280 H       1  LIG1        0.1097
     10 H          28.8640   23.3120   15.8120 H       1  LIG1        0.0951
     11 H          29.3400   21.6120   15.5320 H       1  LIG1        0.1046
     12 C          24.0750   21.4440   17.1590 C.ar    1  LIG1        0.3855
     13 C          23.4000   22.2970   16.2730 C.ar    1  LIG1       -0.2947
     14 H          23.9450   23.0510   15.7090 H       1  LIG1        0.2006
     15 C          22.0170   22.1910   16.0990 C.ar    1  LIG1       -0.0126
     16 H          21.5120   22.8660   15.4120 H       1  LIG1        0.1896
     17 C          21.3050   21.2230   16.8120 C.ar    1  LIG1       -0.5169
     18 C          21.9670   20.3480   17.6770 C.ar    1  LIG1       -0.0553
     19 H          21.4210   19.5830   18.2250 H       1  LIG1        0.1918
     20 C          23.3490   20.4610   17.8470 C.ar    1  LIG1       -0.2636
     21 H          23.8560   19.7800   18.5290 H       1  LIG1        0.1958
     22 S          19.5470   21.0720   16.5870 S.O2    1  LIG1        2.2107
     23 O          19.0150   22.4040   16.3180 O.2     1  LIG1       -0.9763
     24 O          19.0090   20.3250   17.7200 O.2     1  LIG1       -0.9770
     25 C          19.3960   20.0820   15.1230 C.3     1  LIG1       -0.7248
     26 H          18.3330   19.9410   14.9180 H       1  LIG1        0.2351
     27 H          19.8720   19.1150   15.2970 H       1  LIG1        0.1898
     28 H          19.8690   20.6040   14.2890 H       1  LIG1        0.1857
     29 C          26.1230   22.6740   15.1620 C.ar    1  LIG1        0.2174
     30 C          26.3730   24.0390   14.9740 C.ar    1  LIG1       -0.4469
     31 H          26.8460   24.6500   15.7370 H       1  LIG1        0.2897
     32 C          26.0630   24.6310   13.7530 C.ar    1  LIG1        0.4201
     33 C          25.5090   23.8830   12.7220 C.ar    1  LIG1        0.3284
     34 C          25.2560   22.5280   12.8950 C.ar    1  LIG1       -0.2953
     35 H          24.8160   21.9500   12.0870 H       1  LIG1        0.2471
     36 C          25.5630   21.9200   14.1160 C.ar    1  LIG1       -0.1988
     37 H          25.3250   20.8660   14.2400 H       1  LIG1        0.2004
     38 F          25.2160   24.4670   11.5510 F       1  LIG1       -0.3093
     39 F          26.3150   25.9360   13.5710 F       1  LIG1       -0.3148
@<TRIPOS>BOND
     1     1     2   ar
     2     2     3   ar
     3     3     4    1
     4     3     5   ar
     5     5     6    1
     6     5     7   ar
     7     7     1   ar
     8     7     8    1
     9     8     9    1
    10     8    10    1
    11     8    11    1
    12     2    12    1
    13    12    13   ar
    14    13    14    1
    15    13    15   ar
    16    15    16    1
    17    15    17   ar
    18    17    18   ar
    19    18    19    1
    20    18    20   ar
    21    20    21    1
    22    20    12   ar
    23    17    22    1
    24    22    23    2
    25    22    24    2
    26    22    25    1
    27    25    26    1
    28    25    27    1
    29    25    28    1
    30     1    29    1
    31    29    30   ar
    32    30    31    1
    33    30    32   ar
    34    32    33   ar
    35    33    34   ar
    36    34    35    1
    37    34    36   ar
    38    36    37    1
    39    36    29   ar
    40    33    38    1
    41    32    39    1
