@<TRIPOS>MOLECULE
3_13
 43 45 0 0 0
SMALL
USER_CHARGES
****
From 3DB ct
@<TRIPOS>ATOM
      1 C          26.4070   22.1300   16.4610 C.ar    1  LIG1        0.4540
      2 N          25.4690   21.4590   17.2550 N.ar    1  LIG1       -0.2035
      3 C          26.1970   20.8830   18.2810 C.ar    1  LIG1       -0.2212
      4 H          25.7380   20.2750   19.0490 H       1  LIG1        0.2903
      5 C          27.4990   21.3240   18.1630 C.ar    1  LIG1       -0.2755
      6 N          27.6040   22.1150   17.0330 N.ar    1  LIG1       -0.4720
      7 C          28.6660   21.0430   19.0650 C.3     1  LIG1        1.5310
      8 F          29.1770   22.1800   19.6200 F       1  LIG1       -0.4444
      9 F          29.6970   20.4390   18.4050 F       1  LIG1       -0.4497
     10 F          28.3450   20.2200   20.1060 F       1  LIG1       -0.4834
     11 C          24.0480   21.3730   17.1190 C.ar    1  LIG1        0.3976
     12 C          23.3430   22.2570   16.2900 C.ar    1  LIG1       -0.3700
     13 H          23.8370   23.0580   15.7450 H       1  LIG1        0.2302
     14 C          21.9500   22.1710   16.1780 C.ar    1  LIG1        0.0541
     15 H          21.4240   22.8690   15.5300 H       1  LIG1        0.1868
     16 C          21.2540   21.2080   16.9100 C.ar    1  LIG1       -0.5460
     17 C          21.9390   20.3250   17.7450 C.ar    1  LIG1        0.0171
     18 H          21.4060   19.5650   18.3130 H       1  LIG1        0.1944
     19 C          23.3310   20.4140   17.8560 C.ar    1  LIG1       -0.3166
     20 H          23.8310   19.6950   18.5020 H       1  LIG1        0.2093
     21 S          19.4870   21.0860   16.7520 S.O2    1  LIG1        2.1907
     22 O          18.9590   22.4320   16.5540 O.2     1  LIG1       -0.9662
     23 O          18.9890   20.3040   17.8800 O.2     1  LIG1       -0.9641
     24 C          19.2620   20.1540   15.2610 C.3     1  LIG1       -0.7238
     25 H          18.1890   20.0360   15.0940 H       1  LIG1        0.2400
     26 H          19.7290   19.1750   15.3790 H       1  LIG1        0.1925
     27 H          19.7090   20.7010   14.4280 H       1  LIG1        0.1896
     28 C          26.1830   22.7090   15.1320 C.ar    1  LIG1       -0.2115
     29 C          26.4420   24.0640   14.9080 C.ar    1  LIG1       -0.1197
     30 H          26.7900   24.6990   15.7210 H       1  LIG1        0.2017
     31 C          26.2520   24.6240   13.6370 C.ar    1  LIG1       -0.2632
     32 H          26.4570   25.6860   13.5030 H       1  LIG1        0.1598
     33 C          25.8140   23.8510   12.5550 C.ar    1  LIG1        0.4909
     34 C          25.5790   22.4920   12.7840 C.ar    1  LIG1       -0.5308
     35 H          25.2470   21.8390   11.9790 H       1  LIG1        0.1976
     36 C          25.7660   21.9230   14.0520 C.ar    1  LIG1        0.0937
     37 H          25.5830   20.8570   14.1800 H       1  LIG1        0.1114
     38 N          25.6450   24.4540   11.3260 N.pl3   1  LIG1       -0.7608
     39 H          25.3460   23.8840   10.5330 H       1  LIG1        0.4475
     40 C          25.8820   25.8590   11.0650 C.3     1  LIG1        0.0587
     41 H          25.6760   26.0740   10.0110 H       1  LIG1        0.0718
     42 H          26.9250   26.1260   11.2620 H       1  LIG1        0.0588
     43 H          25.2230   26.4890   11.6700 H       1  LIG1        0.0529
@<TRIPOS>BOND
     1     1     2   ar
     2     2     3   ar
     3     3     4    1
     4     3     5   ar
     5     5     6   ar
     6     6     1   ar
     7     5     7    1
     8     7     8    1
     9     7     9    1
    10     7    10    1
    11     2    11    1
    12    11    12   ar
    13    12    13    1
    14    12    14   ar
    15    14    15    1
    16    14    16   ar
    17    16    17   ar
    18    17    18    1
    19    17    19   ar
    20    19    20    1
    21    19    11   ar
    22    16    21    1
    23    21    22    2
    24    21    23    2
    25    21    24    1
    26    24    25    1
    27    24    26    1
    28    24    27    1
    29     1    28    1
    30    28    29   ar
    31    29    30    1
    32    29    31   ar
    33    31    32    1
    34    31    33   ar
    35    33    34   ar
    36    34    35    1
    37    34    36   ar
    38    36    37    1
    39    36    28   ar
    40    33    38    1
    41    38    39    1
    42    38    40    1
    43    40    41    1
    44    40    42    1
    45    40    43    1
