@<TRIPOS>MOLECULE
3_58
 44 46 0 0 0
SMALL
USER_CHARGES
****
From 3DB ct
@<TRIPOS>ATOM
      1 C          26.4090   22.1270   16.4590 C.ar    1  LIG1        0.5243
      2 N          25.4710   21.4590   17.2570 N.ar    1  LIG1       -0.2472
      3 C          26.1980   20.8880   18.2850 C.ar    1  LIG1       -0.1894
      4 H          25.7390   20.2840   19.0550 H       1  LIG1        0.2891
      5 C          27.5010   21.3250   18.1640 C.ar    1  LIG1       -0.2960
      6 N          27.6070   22.1120   17.0310 N.ar    1  LIG1       -0.4745
      7 C          28.6680   21.0460   19.0660 C.3     1  LIG1        1.5412
      8 F          28.3570   20.1910   20.0840 F       1  LIG1       -0.4849
      9 F          29.1500   22.1800   19.6540 F       1  LIG1       -0.4459
     10 F          29.7160   20.4820   18.3990 F       1  LIG1       -0.4485
     11 C          24.0490   21.3740   17.1220 C.ar    1  LIG1        0.3848
     12 C          23.3450   22.2590   16.2920 C.ar    1  LIG1       -0.3309
     13 H          23.8380   23.0590   15.7480 H       1  LIG1        0.2068
     14 C          21.9520   22.1710   16.1780 C.ar    1  LIG1        0.0459
     15 H          21.4260   22.8680   15.5290 H       1  LIG1        0.1909
     16 C          21.2550   21.2080   16.9090 C.ar    1  LIG1       -0.5494
     17 C          21.9400   20.3260   17.7450 C.ar    1  LIG1        0.0115
     18 H          21.4070   19.5660   18.3130 H       1  LIG1        0.1973
     19 C          23.3320   20.4160   17.8580 C.ar    1  LIG1       -0.3028
     20 H          23.8310   19.6970   18.5050 H       1  LIG1        0.2083
     21 S          19.4890   21.0860   16.7440 S.O2    1  LIG1        2.1963
     22 O          18.9630   22.4300   16.5250 O.2     1  LIG1       -0.9662
     23 O          18.9870   20.3210   17.8810 O.2     1  LIG1       -0.9637
     24 C          19.2690   20.1350   15.2640 C.3     1  LIG1       -0.7257
     25 H          18.1960   20.0190   15.0930 H       1  LIG1        0.2413
     26 H          19.7310   19.1550   15.3990 H       1  LIG1        0.1933
     27 H          19.7230   20.6680   14.4280 H       1  LIG1        0.1907
     28 C          26.1820   22.7020   15.1290 C.ar    1  LIG1       -0.1952
     29 C          26.4420   24.0610   14.9040 C.ar    1  LIG1       -0.1842
     30 H          26.7960   24.6760   15.7320 H       1  LIG1        0.2072
     31 C          26.2500   24.6420   13.6380 C.ar    1  LIG1        0.0953
     32 C          25.7980   23.8390   12.5720 C.ar    1  LIG1        0.1421
     33 C          25.5610   22.4750   12.7950 C.ar    1  LIG1       -0.3051
     34 H          25.2220   21.8340   11.9810 H       1  LIG1        0.1965
     35 C          25.7570   21.9100   14.0570 C.ar    1  LIG1       -0.0611
     36 H          25.5740   20.8450   14.1920 H       1  LIG1        0.1365
     37 C          25.5760   24.4110   11.1970 C.3     1  LIG1       -0.3080
     38 H          25.1930   23.6540   10.5050 H       1  LIG1        0.0946
     39 H          26.5180   24.7890   10.7870 H       1  LIG1        0.1042
     40 H          24.8420   25.2220   11.2360 H       1  LIG1        0.0983
     41 C          26.5320   26.1090   13.4510 C.3     1  LIG1       -0.3428
     42 H          27.3010   26.2550   12.6870 H       1  LIG1        0.1105
     43 H          26.8950   26.5690   14.3760 H       1  LIG1        0.1094
     44 H          25.6190   26.6360   13.1570 H       1  LIG1        0.1051
@<TRIPOS>BOND
     1     1     2   ar
     2     2     3   ar
     3     3     4    1
     4     3     5   ar
     5     5     6   ar
     6     6     1   ar
     7     5     7    1
     8     7     8    1
     9     7     9    1
    10     7    10    1
    11     2    11    1
    12    11    12   ar
    13    12    13    1
    14    12    14   ar
    15    14    15    1
    16    14    16   ar
    17    16    17   ar
    18    17    18    1
    19    17    19   ar
    20    19    20    1
    21    19    11   ar
    22    16    21    1
    23    21    22    2
    24    21    23    2
    25    21    24    1
    26    24    25    1
    27    24    26    1
    28    24    27    1
    29     1    28    1
    30    28    29   ar
    31    29    30    1
    32    29    31   ar
    33    31    32   ar
    34    32    33   ar
    35    33    34    1
    36    33    35   ar
    37    35    36    1
    38    35    28   ar
    39    32    37    1
    40    37    38    1
    41    37    39    1
    42    37    40    1
    43    31    41    1
    44    41    42    1
    45    41    43    1
    46    41    44    1
