@<TRIPOS>MOLECULE
3_70
 40 42 0 0 0
SMALL
USER_CHARGES
****
From 3DB ct
@<TRIPOS>ATOM
      1 C          26.4060   22.1300   16.4590 C.ar    1  LIG1        0.4441
      2 N          25.4690   21.4590   17.2550 N.ar    1  LIG1       -0.2562
      3 C          26.1980   20.8850   18.2800 C.ar    1  LIG1       -0.1933
      4 H          25.7410   20.2770   19.0490 H       1  LIG1        0.2852
      5 C          27.5000   21.3270   18.1610 C.ar    1  LIG1       -0.2476
      6 N          27.6030   22.1180   17.0300 N.ar    1  LIG1       -0.4633
      7 C          28.6680   21.0490   19.0620 C.3     1  LIG1        1.4903
      8 F          28.3530   20.2130   20.0950 F       1  LIG1       -0.4730
      9 F          29.1660   22.1870   19.6290 F       1  LIG1       -0.4331
     10 F          29.7070   20.4630   18.3990 F       1  LIG1       -0.4403
     11 C          24.0470   21.3730   17.1200 C.ar    1  LIG1        0.4972
     12 C          23.3420   22.2580   16.2920 C.ar    1  LIG1       -0.4716
     13 H          23.8340   23.0590   15.7480 H       1  LIG1        0.2489
     14 C          21.9490   22.1700   16.1820 C.ar    1  LIG1        0.1640
     15 H          21.4170   22.8670   15.5380 H       1  LIG1        0.1800
     16 C          21.2520   21.2060   16.9130 C.ar    1  LIG1       -0.6593
     17 C          21.9390   20.3240   17.7490 C.ar    1  LIG1        0.0935
     18 H          21.4070   19.5660   18.3180 H       1  LIG1        0.1914
     19 C          23.3320   20.4140   17.8580 C.ar    1  LIG1       -0.3595
     20 H          23.8320   19.6960   18.5040 H       1  LIG1        0.2174
     21 S          19.4920   21.0880   16.7460 S.O2    1  LIG1        2.4636
     22 O          18.9450   22.4010   16.4550 O.2     1  LIG1       -0.9920
     23 O          18.9650   20.2960   17.8430 O.2     1  LIG1       -0.9879
     24 N          19.3330   20.1760   15.3500 N.3     1  LIG1       -1.2956
     25 H          18.8530   20.7040   14.6170 H       1  LIG1        0.4832
     26 H          18.8600   19.2880   15.5410 H       1  LIG1        0.4833
     27 C          26.1800   22.7070   15.1290 C.ar    1  LIG1       -0.2155
     28 C          26.4410   24.0650   14.9090 C.ar    1  LIG1        0.2086
     29 H          26.7880   24.6870   15.7330 H       1  LIG1        0.1170
     30 C          26.2550   24.6280   13.6430 C.ar    1  LIG1       -0.6531
     31 C          25.8160   23.8430   12.5670 C.ar    1  LIG1        0.5504
     32 C          25.5770   22.4780   12.7870 C.ar    1  LIG1       -0.4277
     33 H          25.2460   21.8360   11.9710 H       1  LIG1        0.2062
     34 C          25.7640   21.9150   14.0530 C.ar    1  LIG1        0.0571
     35 H          25.5830   20.8490   14.1850 H       1  LIG1        0.1236
     36 C          25.6060   24.4170   11.1940 C.3     1  LIG1       -0.4074
     37 H          25.2510   23.6550   10.4910 H       1  LIG1        0.1164
     38 H          26.5470   24.8150   10.7990 H       1  LIG1        0.1114
     39 H          24.8540   25.2110   11.2230 H       1  LIG1        0.1033
     40 CL         26.5840   26.3150   13.4520 Cl      1  LIG1        0.1403
@<TRIPOS>BOND
     1     1     2   ar
     2     2     3   ar
     3     3     4    1
     4     3     5   ar
     5     5     6   ar
     6     6     1   ar
     7     5     7    1
     8     7     8    1
     9     7     9    1
    10     7    10    1
    11     2    11    1
    12    11    12   ar
    13    12    13    1
    14    12    14   ar
    15    14    15    1
    16    14    16   ar
    17    16    17   ar
    18    17    18    1
    19    17    19   ar
    20    19    20    1
    21    19    11   ar
    22    16    21    1
    23    21    22    2
    24    21    23    2
    25    21    24    1
    26    24    25    1
    27    24    26    1
    28     1    27    1
    29    27    28   ar
    30    28    29    1
    31    28    30   ar
    32    30    31   ar
    33    31    32   ar
    34    32    33    1
    35    32    34   ar
    36    34    35    1
    37    34    27   ar
    38    31    36    1
    39    36    37    1
    40    36    38    1
    41    36    39    1
    42    30    40    1
