@<TRIPOS>MOLECULE
4_43
 36 38 0 0 0
SMALL
USER_CHARGES
****
From 3DB ct
@<TRIPOS>ATOM
      1 C          26.4050   22.1350   16.4660 C.ar    1  LIG1        0.3951
      2 N          25.4690   21.4550   17.2550 N.ar    1  LIG1       -0.1799
      3 C          26.1970   20.8750   18.2770 C.ar    1  LIG1       -0.2187
      4 H          25.7390   20.2590   19.0390 H       1  LIG1        0.2871
      5 C          27.4970   21.3250   18.1670 C.ar    1  LIG1       -0.2290
      6 N          27.6000   22.1240   17.0430 N.ar    1  LIG1       -0.4611
      7 C          28.6620   21.0470   19.0730 C.3     1  LIG1        1.4722
      8 F          29.1100   22.1740   19.6990 F       1  LIG1       -0.4338
      9 F          29.7300   20.5290   18.3990 F       1  LIG1       -0.4339
     10 F          28.3630   20.1530   20.0610 F       1  LIG1       -0.4670
     11 C          24.0490   21.3670   17.1160 C.ar    1  LIG1        0.4442
     12 C          23.3460   22.2540   16.2870 C.ar    1  LIG1       -0.4302
     13 H          23.8400   23.0610   15.7510 H       1  LIG1        0.2325
     14 C          21.9540   22.1660   16.1710 C.ar    1  LIG1        0.1447
     15 H          21.4270   22.8660   15.5260 H       1  LIG1        0.1876
     16 C          21.2570   21.1910   16.8860 C.ar    1  LIG1       -0.6558
     17 C          21.9400   20.3180   17.7340 C.ar    1  LIG1        0.0893
     18 H          21.4040   19.5590   18.3010 H       1  LIG1        0.1916
     19 C          23.3320   20.4080   17.8510 C.ar    1  LIG1       -0.3389
     20 H          23.8300   19.6920   18.5010 H       1  LIG1        0.2128
     21 S          19.4910   21.1000   16.7670 S.O2    1  LIG1        2.4716
     22 O          18.9560   22.4320   16.5430 O.2     1  LIG1       -0.9958
     23 O          18.9800   20.2730   17.8460 O.2     1  LIG1       -0.9906
     24 N          19.2800   20.2410   15.3450 N.3     1  LIG1       -1.2945
     25 H          18.7870   20.8010   14.6450 H       1  LIG1        0.4842
     26 H          18.8010   19.3530   15.5170 H       1  LIG1        0.4834
     27 C          26.1810   22.7140   15.1400 C.ar    1  LIG1       -0.4142
     28 C          26.4350   24.0680   14.9020 C.ar    1  LIG1        0.1820
     29 H          26.7790   24.7140   15.7070 H       1  LIG1        0.1555
     30 C          26.2440   24.5990   13.6280 C.ar    1  LIG1       -0.5149
     31 H          26.4290   25.6490   13.4270 H       1  LIG1        0.2170
     32 C          25.8170   23.7530   12.6180 C.ar    1  LIG1        0.4517
     33 H          25.6570   24.1320   11.6100 H       1  LIG1        0.0976
     34 N          25.5790   22.4330   12.7970 N.ar    1  LIG1       -0.7187
     35 C          25.7730   21.9450   14.0520 C.ar    1  LIG1        0.5126
     36 H          25.5890   20.8770   14.1570 H       1  LIG1        0.0641
@<TRIPOS>BOND
     1     1     2   ar
     2     2     3   ar
     3     3     4    1
     4     3     5   ar
     5     5     6   ar
     6     6     1   ar
     7     5     7    1
     8     7     8    1
     9     7     9    1
    10     7    10    1
    11     2    11    1
    12    11    12   ar
    13    12    13    1
    14    12    14   ar
    15    14    15    1
    16    14    16   ar
    17    16    17   ar
    18    17    18    1
    19    17    19   ar
    20    19    20    1
    21    19    11   ar
    22    16    21    1
    23    21    22    2
    24    21    23    2
    25    21    24    1
    26    24    25    1
    27    24    26    1
    28     1    27    1
    29    27    28   ar
    30    28    29    1
    31    28    30   ar
    32    30    31    1
    33    30    32   ar
    34    32    33    1
    35    32    34   ar
    36    34    35   ar
    37    35    36    1
    38    35    27   ar
