@<TRIPOS>MOLECULE
4_50
 40 42 0 0 0
SMALL
USER_CHARGES
****
From 3DB ct
@<TRIPOS>ATOM
      1 C          26.4130   22.1490   16.4570 C.ar    1  LIG1        0.2925
      2 N          25.4760   21.4480   17.2260 N.ar    1  LIG1       -0.1269
      3 C          26.2030   20.8510   18.2410 C.ar    1  LIG1       -0.1470
      4 H          25.7440   20.2150   18.9860 H       1  LIG1        0.2744
      5 C          27.4990   21.3130   18.1520 C.ar    1  LIG1       -0.2748
      6 N          27.6040   22.1400   17.0470 N.ar    1  LIG1       -0.4585
      7 C          28.6600   21.0230   19.0590 C.3     1  LIG1        1.4819
      8 F          29.1280   22.1470   19.6750 F       1  LIG1       -0.4341
      9 F          29.7180   20.4810   18.3890 F       1  LIG1       -0.4347
     10 F          28.3470   20.1430   20.0550 F       1  LIG1       -0.4707
     11 C          24.0540   21.3650   17.0940 C.ar    1  LIG1        0.2204
     12 C          23.3480   22.2560   16.2710 C.ar    1  LIG1       -0.1870
     13 H          23.8430   23.0530   15.7240 H       1  LIG1        0.1656
     14 C          21.9540   22.1750   16.1660 C.ar    1  LIG1        0.0097
     15 H          21.4270   22.8780   15.5240 H       1  LIG1        0.1864
     16 C          21.2600   21.2020   16.8850 C.ar    1  LIG1       -0.5082
     17 C          21.9430   20.3250   17.7280 C.ar    1  LIG1       -0.0281
     18 H          21.4100   19.5690   18.3010 H       1  LIG1        0.1954
     19 C          23.3360   20.4090   17.8340 C.ar    1  LIG1       -0.2186
     20 H          23.8360   19.6900   18.4800 H       1  LIG1        0.1922
     21 S          19.4880   21.1120   16.7620 S.O2    1  LIG1        2.1713
     22 O          18.9840   22.4680   16.5640 O.2     1  LIG1       -0.9650
     23 O          18.9950   20.3480   17.9040 O.2     1  LIG1       -0.9611
     24 C          19.2170   20.1730   15.2820 C.3     1  LIG1       -0.7157
     25 H          18.1400   20.0730   15.1370 H       1  LIG1        0.2381
     26 H          19.6700   19.1870   15.3990 H       1  LIG1        0.1929
     27 H          19.6570   20.7060   14.4370 H       1  LIG1        0.1895
     28 C          26.1780   22.7450   15.1370 C.ar    1  LIG1        0.5096
     29 C          26.4280   24.0920   14.9060 C.ar    1  LIG1       -0.4941
     30 H          26.7770   24.7410   15.7040 H       1  LIG1        0.2475
     31 C          26.2170   24.5960   13.6270 C.ar    1  LIG1        0.1753
     32 H          26.3960   25.6480   13.4150 H       1  LIG1        0.1310
     33 C          25.7770   23.7420   12.6200 C.ar    1  LIG1       -0.5535
     34 H          25.6050   24.1220   11.6170 H       1  LIG1        0.2374
     35 C          25.5670   22.4010   12.9220 C.ar    1  LIG1        0.6207
     36 N          25.7720   21.8920   14.1620 N.ar    1  LIG1       -0.7112
     37 C          25.0910   21.4570   11.8580 C.3     1  LIG1       -0.3543
     38 H          24.9750   20.4460   12.2590 H       1  LIG1        0.1102
     39 H          25.8140   21.4180   11.0370 H       1  LIG1        0.1064
     40 H          24.1220   21.7830   11.4690 H       1  LIG1        0.0950
@<TRIPOS>BOND
     1     1     2   ar
     2     2     3   ar
     3     3     4    1
     4     3     5   ar
     5     5     6   ar
     6     6     1   ar
     7     5     7    1
     8     7     8    1
     9     7     9    1
    10     7    10    1
    11     2    11    1
    12    11    12   ar
    13    12    13    1
    14    12    14   ar
    15    14    15    1
    16    14    16   ar
    17    16    17   ar
    18    17    18    1
    19    17    19   ar
    20    19    20    1
    21    19    11   ar
    22    16    21    1
    23    21    22    2
    24    21    23    2
    25    21    24    1
    26    24    25    1
    27    24    26    1
    28    24    27    1
    29     1    28    1
    30    28    29   ar
    31    29    30    1
    32    29    31   ar
    33    31    32    1
    34    31    33   ar
    35    33    34    1
    36    33    35   ar
    37    35    36   ar
    38    36    28   ar
    39    35    37    1
    40    37    38    1
    41    37    39    1
    42    37    40    1
