@<TRIPOS>MOLECULE
4_51
 40 42 0 0 0
SMALL
USER_CHARGES
****
From 3DB ct
@<TRIPOS>ATOM
      1 C          26.4130   22.1410   16.4570 C.ar    1  LIG1        0.2597
      2 N          25.4870   21.4490   17.2460 N.ar    1  LIG1       -0.1116
      3 C          26.2300   20.8490   18.2490 C.ar    1  LIG1       -0.1424
      4 H          25.7820   20.2200   19.0050 H       1  LIG1        0.2735
      5 C          27.5280   21.3000   18.1310 C.ar    1  LIG1       -0.2726
      6 N          27.6170   22.1230   17.0220 N.ar    1  LIG1       -0.4573
      7 C          28.7050   21.0030   19.0150 C.3     1  LIG1        1.4791
      8 F          29.1720   22.1200   19.6450 F       1  LIG1       -0.4334
      9 F          29.7580   20.4840   18.3200 F       1  LIG1       -0.4338
     10 F          28.4140   20.1020   19.9990 F       1  LIG1       -0.4709
     11 C          24.0610   21.3770   17.1440 C.ar    1  LIG1        0.1831
     12 C          23.3300   20.4140   17.8550 C.ar    1  LIG1       -0.2019
     13 H          23.8100   19.6760   18.4910 H       1  LIG1        0.1891
     14 C          21.9380   20.3400   17.7260 C.ar    1  LIG1       -0.0330
     15 H          21.3920   19.5810   18.2840 H       1  LIG1        0.1969
     16 C          21.2700   21.2290   16.8830 C.ar    1  LIG1       -0.4980
     17 C          21.9850   22.1760   16.1500 C.ar    1  LIG1       -0.0117
     18 H          21.4750   22.8680   15.4820 H       1  LIG1        0.1900
     19 C          23.3760   22.2480   16.2780 C.ar    1  LIG1       -0.1586
     20 H          23.8940   23.0180   15.7110 H       1  LIG1        0.1600
     21 S          19.5040   21.1190   16.7050 S.O2    1  LIG1        2.1726
     22 O          18.9930   22.4650   16.4650 O.2     1  LIG1       -0.9659
     23 O          18.9830   20.3720   17.8460 O.2     1  LIG1       -0.9612
     24 C          19.2890   20.1490   15.2360 C.3     1  LIG1       -0.7188
     25 H          18.2170   20.0360   15.0590 H       1  LIG1        0.2393
     26 H          19.7460   19.1690   15.3870 H       1  LIG1        0.1930
     27 H          19.7510   20.6690   14.3950 H       1  LIG1        0.1906
     28 C          26.1570   22.7390   15.1420 C.ar    1  LIG1        0.5728
     29 C          26.4010   24.0870   14.9110 C.ar    1  LIG1       -0.5321
     30 H          26.7560   24.7340   15.7070 H       1  LIG1        0.2614
     31 C          26.1750   24.5980   13.6340 C.ar    1  LIG1        0.0865
     32 H          26.3470   25.6550   13.4410 H       1  LIG1        0.1568
     33 C          25.7360   23.7490   12.6170 C.ar    1  LIG1       -0.1039
     34 C          25.5250   22.4140   12.9410 C.ar    1  LIG1        0.2333
     35 H          25.1680   21.7070   12.1940 H       1  LIG1        0.1499
     36 N          25.7360   21.8880   14.1720 N.ar    1  LIG1       -0.6748
     37 C          25.4480   24.2680   11.2430 C.3     1  LIG1       -0.3569
     38 H          25.6310   23.4960   10.4880 H       1  LIG1        0.1141
     39 H          26.0950   25.1180   11.0030 H       1  LIG1        0.1175
     40 H          24.4040   24.5880   11.1750 H       1  LIG1        0.1199
@<TRIPOS>BOND
     1     1     2   ar
     2     2     3   ar
     3     3     4    1
     4     3     5   ar
     5     5     6   ar
     6     6     1   ar
     7     5     7    1
     8     7     8    1
     9     7     9    1
    10     7    10    1
    11     2    11    1
    12    11    12   ar
    13    12    13    1
    14    12    14   ar
    15    14    15    1
    16    14    16   ar
    17    16    17   ar
    18    17    18    1
    19    17    19   ar
    20    19    20    1
    21    19    11   ar
    22    16    21    1
    23    21    22    2
    24    21    23    2
    25    21    24    1
    26    24    25    1
    27    24    26    1
    28    24    27    1
    29     1    28    1
    30    28    29   ar
    31    29    30    1
    32    29    31   ar
    33    31    32    1
    34    31    33   ar
    35    33    34   ar
    36    34    35    1
    37    34    36   ar
    38    36    28   ar
    39    33    37    1
    40    37    38    1
    41    37    39    1
    42    37    40    1
