@<TRIPOS>MOLECULE
4_52
 40 42 0 0 0
SMALL
USER_CHARGES
****
From 3DB ct
@<TRIPOS>ATOM
      1 C          26.4110   22.1470   16.4550 C.ar    1  LIG1        0.2797
      2 N          25.4740   21.4480   17.2250 N.ar    1  LIG1       -0.1328
      3 C          26.2010   20.8550   18.2440 C.ar    1  LIG1       -0.1422
      4 H          25.7420   20.2220   18.9910 H       1  LIG1        0.2738
      5 C          27.4970   21.3180   18.1540 C.ar    1  LIG1       -0.2732
      6 N          27.6020   22.1410   17.0470 N.ar    1  LIG1       -0.4639
      7 C          28.6570   21.0320   19.0630 C.3     1  LIG1        1.4903
      8 F          29.1230   22.1590   19.6760 F       1  LIG1       -0.4355
      9 F          29.7170   20.4890   18.3950 F       1  LIG1       -0.4376
     10 F          28.3440   20.1540   20.0610 F       1  LIG1       -0.4734
     11 C          24.0520   21.3620   17.0910 C.ar    1  LIG1        0.2054
     12 C          23.3440   22.2520   16.2700 C.ar    1  LIG1       -0.1733
     13 H          23.8370   23.0510   15.7220 H       1  LIG1        0.1653
     14 C          21.9500   22.1710   16.1670 C.ar    1  LIG1       -0.0061
     15 H          21.4220   22.8760   15.5270 H       1  LIG1        0.1898
     16 C          21.2560   21.1990   16.8880 C.ar    1  LIG1       -0.5007
     17 C          21.9420   20.3220   17.7280 C.ar    1  LIG1       -0.0331
     18 H          21.4090   19.5660   18.3020 H       1  LIG1        0.1966
     19 C          23.3350   20.4050   17.8310 C.ar    1  LIG1       -0.2076
     20 H          23.8350   19.6860   18.4760 H       1  LIG1        0.1902
     21 S          19.4840   21.1110   16.7720 S.O2    1  LIG1        2.1735
     22 O          18.9780   22.4700   16.6070 O.2     1  LIG1       -0.9658
     23 O          18.9980   20.3220   17.8990 O.2     1  LIG1       -0.9615
     24 C          19.2050   20.2060   15.2730 C.3     1  LIG1       -0.7214
     25 H          18.1260   20.1080   15.1320 H       1  LIG1        0.2396
     26 H          19.6590   19.2170   15.3650 H       1  LIG1        0.1939
     27 H          19.6400   20.7570   14.4380 H       1  LIG1        0.1918
     28 C          26.1780   22.7420   15.1350 C.ar    1  LIG1        0.6002
     29 C          26.4240   24.0930   14.9070 C.ar    1  LIG1       -0.6628
     30 H          26.7600   24.7320   15.7200 H       1  LIG1        0.2867
     31 C          26.2310   24.6100   13.6230 C.ar    1  LIG1        0.5377
     32 C          25.7860   23.7490   12.6190 C.ar    1  LIG1       -0.5927
     33 H          25.6030   24.1030   11.6080 H       1  LIG1        0.2456
     34 C          25.5840   22.4130   12.9280 C.ar    1  LIG1        0.3635
     35 H          25.2480   21.7140   12.1640 H       1  LIG1        0.1182
     36 N          25.7800   21.8870   14.1590 N.ar    1  LIG1       -0.7062
     37 C          26.4410   26.0680   13.3450 C.3     1  LIG1       -0.3885
     38 H          25.5160   26.6220   13.5340 H       1  LIG1        0.1167
     39 H          26.7430   26.2280   12.3050 H       1  LIG1        0.1032
     40 H          27.2340   26.4750   13.9800 H       1  LIG1        0.1166
@<TRIPOS>BOND
     1     1     2   ar
     2     2     3   ar
     3     3     4    1
     4     3     5   ar
     5     5     6   ar
     6     6     1   ar
     7     5     7    1
     8     7     8    1
     9     7     9    1
    10     7    10    1
    11     2    11    1
    12    11    12   ar
    13    12    13    1
    14    12    14   ar
    15    14    15    1
    16    14    16   ar
    17    16    17   ar
    18    17    18    1
    19    17    19   ar
    20    19    20    1
    21    19    11   ar
    22    16    21    1
    23    21    22    2
    24    21    23    2
    25    21    24    1
    26    24    25    1
    27    24    26    1
    28    24    27    1
    29     1    28    1
    30    28    29   ar
    31    29    30    1
    32    29    31   ar
    33    31    32   ar
    34    32    33    1
    35    32    34   ar
    36    34    35    1
    37    34    36   ar
    38    36    28   ar
    39    31    37    1
    40    37    38    1
    41    37    39    1
    42    37    40    1
