@<TRIPOS>MOLECULE
4_56
 39 41 0 0 0
SMALL
USER_CHARGES
****
From 3DB ct
@<TRIPOS>ATOM
      1 C          26.4100   22.1480   16.4550 C.ar    1  LIG1        0.3126
      2 N          25.4730   21.4480   17.2240 N.ar    1  LIG1       -0.1926
      3 C          26.1980   20.8570   18.2450 C.ar    1  LIG1       -0.1305
      4 H          25.7400   20.2240   18.9920 H       1  LIG1        0.2695
      5 C          27.4940   21.3200   18.1560 C.ar    1  LIG1       -0.2709
      6 N          27.6010   22.1430   17.0480 N.ar    1  LIG1       -0.4703
      7 C          28.6530   21.0360   19.0670 C.3     1  LIG1        1.4922
      8 F          29.1150   22.1630   19.6820 F       1  LIG1       -0.4365
      9 F          29.7160   20.4960   18.4020 F       1  LIG1       -0.4378
     10 F          28.3400   20.1570   20.0640 F       1  LIG1       -0.4748
     11 C          24.0500   21.3610   17.0890 C.ar    1  LIG1        0.3137
     12 C          23.3430   22.2510   16.2670 C.ar    1  LIG1       -0.2420
     13 H          23.8350   23.0500   15.7200 H       1  LIG1        0.1735
     14 C          21.9490   22.1690   16.1640 C.ar    1  LIG1        0.0818
     15 H          21.4190   22.8710   15.5230 H       1  LIG1        0.1853
     16 C          21.2530   21.1970   16.8840 C.ar    1  LIG1       -0.6177
     17 C          21.9410   20.3190   17.7240 C.ar    1  LIG1        0.0460
     18 H          21.4060   19.5620   18.2950 H       1  LIG1        0.1930
     19 C          23.3340   20.4030   17.8270 C.ar    1  LIG1       -0.2652
     20 H          23.8340   19.6830   18.4720 H       1  LIG1        0.1996
     21 S          19.4860   21.1130   16.7810 S.O2    1  LIG1        2.4605
     22 O          18.9540   22.4470   16.5640 O.2     1  LIG1       -0.9982
     23 O          18.9830   20.2880   17.8660 O.2     1  LIG1       -0.9921
     24 N          19.2580   20.2560   15.3610 N.3     1  LIG1       -1.2994
     25 H          18.7590   20.8180   14.6670 H       1  LIG1        0.4843
     26 H          18.7780   19.3690   15.5380 H       1  LIG1        0.4842
     27 C          26.1790   22.7430   15.1350 C.ar    1  LIG1        0.5777
     28 C          26.4260   24.0930   14.9070 C.ar    1  LIG1       -0.6554
     29 H          26.7610   24.7320   15.7200 H       1  LIG1        0.2836
     30 C          26.2330   24.6100   13.6230 C.ar    1  LIG1        0.5340
     31 C          25.7890   23.7490   12.6180 C.ar    1  LIG1       -0.5991
     32 H          25.6060   24.1040   11.6080 H       1  LIG1        0.2473
     33 C          25.5870   22.4140   12.9270 C.ar    1  LIG1        0.3760
     34 H          25.2520   21.7150   12.1630 H       1  LIG1        0.1163
     35 N          25.7820   21.8880   14.1590 N.ar    1  LIG1       -0.6973
     36 C          26.4440   26.0680   13.3450 C.3     1  LIG1       -0.3833
     37 H          25.5180   26.6220   13.5300 H       1  LIG1        0.1146
     38 H          26.7510   26.2280   12.3060 H       1  LIG1        0.1024
     39 H          27.2350   26.4760   13.9840 H       1  LIG1        0.1148
@<TRIPOS>BOND
     1     1     2   ar
     2     2     3   ar
     3     3     4    1
     4     3     5   ar
     5     5     6   ar
     6     6     1   ar
     7     5     7    1
     8     7     8    1
     9     7     9    1
    10     7    10    1
    11     2    11    1
    12    11    12   ar
    13    12    13    1
    14    12    14   ar
    15    14    15    1
    16    14    16   ar
    17    16    17   ar
    18    17    18    1
    19    17    19   ar
    20    19    20    1
    21    19    11   ar
    22    16    21    1
    23    21    22    2
    24    21    23    2
    25    21    24    1
    26    24    25    1
    27    24    26    1
    28     1    27    1
    29    27    28   ar
    30    28    29    1
    31    28    30   ar
    32    30    31   ar
    33    31    32    1
    34    31    33   ar
    35    33    34    1
    36    33    35   ar
    37    35    27   ar
    38    30    36    1
    39    36    37    1
    40    36    38    1
    41    36    39    1
