@<TRIPOS>MOLECULE
4_62
 38 40 0 0 0
SMALL
USER_CHARGES
****
From 3DB ct
@<TRIPOS>ATOM
      1 C          26.4080   22.1350   16.4660 C.ar    1  LIG1        0.2700
      2 N          25.4700   21.4560   17.2560 N.ar    1  LIG1       -0.1113
      3 C          26.2000   20.8740   18.2760 C.ar    1  LIG1       -0.3837
      4 H          25.7440   20.2600   19.0400 H       1  LIG1        0.3215
      5 CA         27.4930   21.3270   18.1550 C.ar    1  LIG1        0.0287
      6 N          27.6040   22.1200   17.0410 N.ar    1  LIG1       -0.4600
      7 C          28.6600   21.0580   19.0440 C.3     1  LIG1        0.2375
      8 H1         29.5890   21.0830   18.4650 H       1  LIG1        0.0256
      9 H2         28.5650   20.0700   19.5060 H       1  LIG1        0.0727
     10 O          28.7540   22.0360   20.0840 O.3     1  LIG1       -0.6524
     11 H          29.5490   21.7770   20.5950 H       1  LIG1        0.4313
     12 C          24.0500   21.3700   17.1180 C.ar    1  LIG1        0.3996
     13 C          23.3470   22.2560   16.2890 C.ar    1  LIG1       -0.4024
     14 H          23.8410   23.0630   15.7530 H       1  LIG1        0.2354
     15 C          21.9550   22.1680   16.1730 C.ar    1  LIG1        0.0710
     16 H          21.4280   22.8700   15.5300 H       1  LIG1        0.1858
     17 C          21.2590   21.1920   16.8890 C.ar    1  LIG1       -0.5721
     18 C          21.9410   20.3200   17.7380 C.ar    1  LIG1        0.0408
     19 H          21.4070   19.5630   18.3080 H       1  LIG1        0.1924
     20 C          23.3320   20.4110   17.8540 C.ar    1  LIG1       -0.3151
     21 H          23.8310   19.6970   18.5050 H       1  LIG1        0.1934
     22 S          19.4880   21.0980   16.7560 S.O2    1  LIG1        2.1945
     23 O          18.9790   22.4550   16.5850 O.2     1  LIG1       -0.9680
     24 O          18.9940   20.3080   17.8810 O.2     1  LIG1       -0.9683
     25 C          19.2260   20.1880   15.2570 C.3     1  LIG1       -0.7219
     26 H          18.1500   20.0860   15.1060 H       1  LIG1        0.2381
     27 H          19.6830   19.2020   15.3550 H       1  LIG1        0.1926
     28 H          19.6680   20.7400   14.4250 H       1  LIG1        0.1951
     29 C          26.1820   22.7140   15.1410 C.ar    1  LIG1       -0.3681
     30 C          26.4350   24.0680   14.9020 C.ar    1  LIG1        0.1641
     31 H          26.7820   24.7150   15.7050 H       1  LIG1        0.1562
     32 C          26.2390   24.5980   13.6270 C.ar    1  LIG1       -0.5123
     33 H          26.4230   25.6490   13.4250 H       1  LIG1        0.2151
     34 C          25.8080   23.7520   12.6190 C.ar    1  LIG1        0.4407
     35 H          25.6440   24.1300   11.6120 H       1  LIG1        0.0955
     36 N          25.5700   22.4320   12.8000 N.ar    1  LIG1       -0.7148
     37 C          25.7690   21.9450   14.0540 C.ar    1  LIG1        0.4867
     38 H          25.5850   20.8770   14.1610 H       1  LIG1        0.0660
@<TRIPOS>BOND
     1     1     2   ar
     2     2     3   ar
     3     3     4    1
     4     3     5   ar
     5     5     6   ar
     6     6     1   ar
     7     5     7    1
     8     7     8    1
     9     7     9    1
    10     7    10    1
    11    10    11    1
    12     2    12    1
    13    12    13   ar
    14    13    14    1
    15    13    15   ar
    16    15    16    1
    17    15    17   ar
    18    17    18   ar
    19    18    19    1
    20    18    20   ar
    21    20    21    1
    22    20    12   ar
    23    17    22    1
    24    22    23    2
    25    22    24    2
    26    22    25    1
    27    25    26    1
    28    25    27    1
    29    25    28    1
    30     1    29    1
    31    29    30   ar
    32    30    31    1
    33    30    32   ar
    34    32    33    1
    35    32    34   ar
    36    34    35    1
    37    34    36   ar
    38    36    37   ar
    39    37    38    1
    40    37    29   ar
