@<TRIPOS>MOLECULE
4_64
 43 46 0 0 0
SMALL
USER_CHARGES
****
From 3DB ct
@<TRIPOS>ATOM
      1 C          26.4120   22.1450   16.4540 C.ar    1  LIG1        0.3180
      2 N          25.4750   21.4480   17.2260 N.ar    1  LIG1       -0.1497
      3 C          26.2010   20.8550   18.2440 C.ar    1  LIG1       -0.1397
      4 H          25.7420   20.2240   18.9930 H       1  LIG1        0.2726
      5 C          27.4980   21.3150   18.1510 C.ar    1  LIG1       -0.2835
      6 N          27.6040   22.1360   17.0430 N.ar    1  LIG1       -0.4700
      7 C          28.6590   21.0260   19.0590 C.3     1  LIG1        1.4948
      8 F          28.3460   20.1470   20.0560 F       1  LIG1       -0.4747
      9 F          29.1260   22.1510   19.6740 F       1  LIG1       -0.4364
     10 F          29.7180   20.4840   18.3900 F       1  LIG1       -0.4380
     11 C          24.0520   21.3650   17.0940 C.ar    1  LIG1        0.2083
     12 C          23.3450   22.2550   16.2710 C.ar    1  LIG1       -0.1637
     13 H          23.8380   23.0500   15.7190 H       1  LIG1        0.1590
     14 C          21.9510   22.1760   16.1710 C.ar    1  LIG1       -0.0090
     15 H          21.4230   22.8760   15.5270 H       1  LIG1        0.1905
     16 C          21.2550   21.2160   16.9070 C.ar    1  LIG1       -0.5037
     17 C          21.9420   20.3280   17.7340 C.ar    1  LIG1       -0.0354
     18 H          21.4100   19.5700   18.3060 H       1  LIG1        0.1967
     19 C          23.3350   20.4090   17.8340 C.ar    1  LIG1       -0.2063
     20 H          23.8360   19.6860   18.4750 H       1  LIG1        0.1903
     21 S          19.4860   21.1040   16.7600 S.O2    1  LIG1        2.1740
     22 O          18.9620   22.4550   16.5840 O.2     1  LIG1       -0.9661
     23 O          18.9940   20.3100   17.8810 O.2     1  LIG1       -0.9616
     24 C          19.2450   20.1930   15.2580 C.3     1  LIG1       -0.7230
     25 H          18.1710   20.0840   15.0970 H       1  LIG1        0.2397
     26 H          19.7070   19.2100   15.3600 H       1  LIG1        0.1946
     27 H          19.6910   20.7480   14.4300 H       1  LIG1        0.1913
     28 C          26.1780   22.7410   15.1340 C.ar    1  LIG1        0.5456
     29 C          26.4300   24.0890   14.9070 C.ar    1  LIG1       -0.6470
     30 H          26.7750   24.7230   15.7200 H       1  LIG1        0.2826
     31 C          26.2270   24.6130   13.6230 C.ar    1  LIG1        0.4865
     32 C          25.7880   23.7530   12.5970 C.ar    1  LIG1       -0.2430
     33 C          25.5850   22.4120   12.9260 C.ar    1  LIG1        0.2887
     34 H          25.2510   21.6980   12.1740 H       1  LIG1        0.1399
     35 N          25.7760   21.8860   14.1620 N.ar    1  LIG1       -0.6896
     36 C          25.5780   24.2630   11.3030 C.ar    1  LIG1       -0.1805
     37 H          25.2390   23.6090   10.5000 H       1  LIG1        0.1742
     38 C          25.8020   25.6130   11.0310 C.ar    1  LIG1       -0.1126
     39 H          25.6370   26.0000   10.0270 H       1  LIG1        0.1499
     40 C          26.2370   26.4640   12.0440 C.ar    1  LIG1       -0.0703
     41 H          26.4120   27.5170   11.8310 H       1  LIG1        0.1547
     42 C          26.4490   25.9690   13.3320 C.ar    1  LIG1       -0.3605
     43 H          26.7900   26.6530   14.1090 H       1  LIG1        0.2123
@<TRIPOS>BOND
     1     1     2   ar
     2     2     3   ar
     3     3     4    1
     4     3     5   ar
     5     5     6   ar
     6     6     1   ar
     7     5     7    1
     8     7     8    1
     9     7     9    1
    10     7    10    1
    11     2    11    1
    12    11    12   ar
    13    12    13    1
    14    12    14   ar
    15    14    15    1
    16    14    16   ar
    17    16    17   ar
    18    17    18    1
    19    17    19   ar
    20    19    20    1
    21    19    11   ar
    22    16    21    1
    23    21    22    2
    24    21    23    2
    25    21    24    1
    26    24    25    1
    27    24    26    1
    28    24    27    1
    29     1    28    1
    30    28    29   ar
    31    29    30    1
    32    29    31   ar
    33    31    32   ar
    34    32    33   ar
    35    33    34    1
    36    33    35   ar
    37    35    28   ar
    38    32    36   ar
    39    36    37    1
    40    36    38   ar
    41    38    39    1
    42    38    40   ar
    43    40    41    1
    44    40    42   ar
    45    42    43    1
    46    42    31   ar
