@<TRIPOS>MOLECULE
4_73
 35 37 0 0 0
SMALL
USER_CHARGES
****
From 3DB ct
@<TRIPOS>ATOM
      1 C          26.4100   22.1760   16.5270 C.ar    1  LIG1        0.4097
      2 N          25.4760   21.4480   17.2650 N.ar    1  LIG1       -0.1336
      3 C          26.2090   20.8080   18.2490 C.ar    1  LIG1       -0.2006
      4 H          25.7550   20.1450   18.9720 H       1  LIG1        0.2848
      5 C          27.5090   21.2670   18.1610 C.ar    1  LIG1       -0.2490
      6 N          27.6090   22.1360   17.0870 N.ar    1  LIG1       -0.4699
      7 C          28.6780   20.9320   19.0410 C.3     1  LIG1        1.4944
      8 F          28.3700   20.0190   20.0080 F       1  LIG1       -0.4740
      9 F          29.1660   22.0290   19.6910 F       1  LIG1       -0.4370
     10 F          29.7230   20.4060   18.3370 F       1  LIG1       -0.4363
     11 C          24.0560   21.3690   17.1240 C.ar    1  LIG1        0.3562
     12 C          23.3600   22.2590   16.2940 C.ar    1  LIG1       -0.4455
     13 H          23.8600   23.0590   15.7540 H       1  LIG1        0.2412
     14 C          21.9670   22.1800   16.1770 C.ar    1  LIG1        0.1140
     15 H          21.4460   22.8820   15.5290 H       1  LIG1        0.1827
     16 C          21.2630   21.2200   16.9050 C.ar    1  LIG1       -0.5533
     17 C          21.9400   20.3310   17.7410 C.ar    1  LIG1        0.0127
     18 H          21.4010   19.5740   18.3060 H       1  LIG1        0.1946
     19 C          23.3320   20.4130   17.8570 C.ar    1  LIG1       -0.2705
     20 H          23.8270   19.6910   18.5050 H       1  LIG1        0.2008
     21 S          19.4960   21.1080   16.7420 S.O2    1  LIG1        2.1785
     22 O          18.9810   22.4520   16.4980 O.2     1  LIG1       -0.9619
     23 O          18.9850   20.3680   17.8910 O.2     1  LIG1       -0.9563
     24 C          19.2700   20.1320   15.2790 C.3     1  LIG1       -0.7239
     25 H          18.1970   20.0190   15.1100 H       1  LIG1        0.2452
     26 H          19.7270   19.1520   15.4310 H       1  LIG1        0.1952
     27 H          19.7270   20.6470   14.4330 H       1  LIG1        0.1870
     28 C          26.2130   22.8270   15.2610 C.ar    1  LIG1       -0.2620
     29 C          26.4490   24.1590   14.9760 C.ar    1  LIG1        0.2430
     30 H          26.7870   24.8730   15.7190 H       1  LIG1        0.1509
     31 C          26.1840   24.4580   13.6170 C.ar    1  LIG1       -0.8323
     32 C          25.7840   23.3670   12.8870 C.ar    1  LIG1        0.0490
     33 H          25.5260   23.3190   11.8380 H       1  LIG1        0.1852
     34 S          25.7440   21.9560   13.8560 S.2     1  LIG1        0.2148
     35 BR         26.3830   26.2000   12.9210 Br      1  LIG1        0.2662
@<TRIPOS>BOND
     1     1     2   ar
     2     2     3   ar
     3     3     4    1
     4     3     5   ar
     5     5     6   ar
     6     6     1   ar
     7     5     7    1
     8     7     8    1
     9     7     9    1
    10     7    10    1
    11     2    11    1
    12    11    12   ar
    13    12    13    1
    14    12    14   ar
    15    14    15    1
    16    14    16   ar
    17    16    17   ar
    18    17    18    1
    19    17    19   ar
    20    19    20    1
    21    19    11   ar
    22    16    21    1
    23    21    22    2
    24    21    23    2
    25    21    24    1
    26    24    25    1
    27    24    26    1
    28    24    27    1
    29     1    28    1
    30    28    29   ar
    31    29    30    1
    32    29    31   ar
    33    31    32   ar
    34    32    33    1
    35    32    34   ar
    36    34    28   ar
    37    31    35    1
