@<TRIPOS>MOLECULE
5_1d
 42 44 0 0 0
SMALL
USER_CHARGES
****
From 3DB ct
@<TRIPOS>ATOM
      1 C          26.3810   22.0710   16.4150 C.2     1  LIG1        0.0555
      2 C          25.4920   21.4970   17.2520 C.2     1  LIG1       -0.1705
      3 C          26.1760   20.9460   18.4740 C.3     1  LIG1       -0.0513
      4 H          25.8650   19.9300   18.7320 H       1  LIG1        0.0413
      5 H          25.9930   21.6000   19.3350 H       1  LIG1        0.0720
      6 C          27.6480   20.9620   18.0760 C.3     1  LIG1       -0.0848
      7 H          27.9310   19.9840   17.6640 H       1  LIG1        0.0570
      8 H          28.3060   21.1580   18.9290 H       1  LIG1        0.0353
      9 C          27.7680   22.0300   16.9960 C.3     1  LIG1       -0.1393
     10 H          28.0340   22.9990   17.4320 H       1  LIG1        0.0952
     11 H          28.5270   21.7490   16.2590 H       1  LIG1        0.0650
     12 C          24.0350   21.3840   17.1150 C.ar    1  LIG1        0.2112
     13 C          23.3260   22.2600   16.2800 C.ar    1  LIG1       -0.2078
     14 H          23.8500   23.0300   15.7150 H       1  LIG1        0.1605
     15 C          21.9350   22.1680   16.1600 C.ar    1  LIG1       -0.0377
     16 H          21.4090   22.8550   15.5020 H       1  LIG1        0.1886
     17 C          21.2440   21.2000   16.8910 C.ar    1  LIG1       -0.4975
     18 C          21.9330   20.3180   17.7260 C.ar    1  LIG1       -0.0244
     19 H          21.4040   19.5550   18.2930 H       1  LIG1        0.1759
     20 C          23.3230   20.4180   17.8400 C.ar    1  LIG1       -0.2796
     21 H          23.8440   19.7180   18.4910 H       1  LIG1        0.2102
     22 S          19.4790   21.0670   16.7250 S.O2    1  LIG1        2.1784
     23 O          18.9390   22.4120   16.5500 O.2     1  LIG1       -0.9732
     24 O          18.9840   20.2600   17.8370 O.2     1  LIG1       -0.9725
     25 C          19.2650   20.1620   15.2150 C.3     1  LIG1       -0.7196
     26 H          18.1940   20.0410   15.0410 H       1  LIG1        0.2329
     27 H          19.7370   19.1830   15.3170 H       1  LIG1        0.1891
     28 H          19.7130   20.7270   14.3960 H       1  LIG1        0.1861
     29 C          26.1570   22.7000   15.1060 C.ar    1  LIG1        0.0085
     30 C          26.4190   24.0640   14.9190 C.ar    1  LIG1       -0.1593
     31 H          26.7590   24.6820   15.7480 H       1  LIG1        0.1523
     32 C          26.2300   24.6660   13.6710 C.ar    1  LIG1       -0.2604
     33 H          26.4280   25.7320   13.5610 H       1  LIG1        0.1864
     34 C          25.7940   23.9120   12.5780 C.ar    1  LIG1        0.2162
     35 C          25.5290   22.5510   12.7580 C.ar    1  LIG1       -0.3057
     36 H          25.1770   21.9430   11.9260 H       1  LIG1        0.1947
     37 C          25.7180   21.9510   14.0070 C.ar    1  LIG1       -0.1288
     38 H          25.5220   20.8840   14.1080 H       1  LIG1        0.1416
     39 C          25.5580   24.5640   11.2470 C.3     1  LIG1       -0.3188
     40 H          25.7270   23.8560   10.4290 H       1  LIG1        0.0906
     41 H          26.2460   25.4040   11.0970 H       1  LIG1        0.0891
     42 H          24.5300   24.9340   11.1890 H       1  LIG1        0.0975
@<TRIPOS>BOND
     1     1     2    2
     2     2     3    1
     3     3     4    1
     4     3     5    1
     5     3     6    1
     6     6     7    1
     7     6     8    1
     8     6     9    1
     9     9    10    1
    10     9    11    1
    11     9     1    1
    12     2    12    1
    13    12    13   ar
    14    13    14    1
    15    13    15   ar
    16    15    16    1
    17    15    17   ar
    18    17    18   ar
    19    18    19    1
    20    18    20   ar
    21    20    21    1
    22    20    12   ar
    23    17    22    1
    24    22    23    2
    25    22    24    2
    26    22    25    1
    27    25    26    1
    28    25    27    1
    29    25    28    1
    30     1    29    1
    31    29    30   ar
    32    30    31    1
    33    30    32   ar
    34    32    33    1
    35    32    34   ar
    36    34    35   ar
    37    35    36    1
    38    35    37   ar
    39    37    38    1
    40    37    29   ar
    41    34    39    1
    42    39    40    1
    43    39    41    1
    44    39    42    1
