@<TRIPOS>MOLECULE
5_1f
 42 44 0 0 0
SMALL
USER_CHARGES
****
From 3DB ct
@<TRIPOS>ATOM
      1 C          26.3810   22.0710   16.4160 C.2     1  LIG1       -0.0875
      2 C          25.4930   21.4960   17.2510 C.2     1  LIG1       -0.0660
      3 C          26.1770   20.9460   18.4740 C.3     1  LIG1       -0.0672
      4 H          25.8670   19.9290   18.7310 H       1  LIG1        0.0464
      5 H          25.9930   21.5990   19.3350 H       1  LIG1        0.0786
      6 C          27.6490   20.9630   18.0770 C.3     1  LIG1       -0.0746
      7 H          27.9330   19.9860   17.6640 H       1  LIG1        0.0598
      8 H          28.3070   21.1600   18.9300 H       1  LIG1        0.0363
      9 C          27.7690   22.0320   16.9970 C.3     1  LIG1       -0.1333
     10 H          28.0330   23.0020   17.4340 H       1  LIG1        0.1017
     11 H          28.5290   21.7530   16.2610 H       1  LIG1        0.0641
     12 C          24.0360   21.3830   17.1130 C.ar    1  LIG1        0.1418
     13 C          23.3270   22.2590   16.2780 C.ar    1  LIG1       -0.1875
     14 H          23.8520   23.0300   15.7150 H       1  LIG1        0.1494
     15 C          21.9370   22.1680   16.1580 C.ar    1  LIG1       -0.0476
     16 H          21.4110   22.8560   15.5000 H       1  LIG1        0.1933
     17 C          21.2450   21.2000   16.8890 C.ar    1  LIG1       -0.4841
     18 C          21.9330   20.3180   17.7230 C.ar    1  LIG1       -0.0223
     19 H          21.4040   19.5540   18.2890 H       1  LIG1        0.1784
     20 C          23.3230   20.4160   17.8370 C.ar    1  LIG1       -0.2550
     21 H          23.8440   19.7150   18.4880 H       1  LIG1        0.2055
     22 S          19.4790   21.0700   16.7260 S.O2    1  LIG1        2.1691
     23 O          18.9420   22.4160   16.5470 O.2     1  LIG1       -0.9664
     24 O          18.9840   20.2680   17.8400 O.2     1  LIG1       -0.9676
     25 C          19.2620   20.1610   15.2190 C.3     1  LIG1       -0.7178
     26 H          18.1900   20.0400   15.0480 H       1  LIG1        0.2375
     27 H          19.7340   19.1820   15.3230 H       1  LIG1        0.1885
     28 H          19.7080   20.7230   14.3970 H       1  LIG1        0.1873
     29 C          26.1570   22.7000   15.1070 C.ar    1  LIG1        0.2570
     30 C          26.4190   24.0630   14.9200 C.ar    1  LIG1       -0.2699
     31 H          26.7630   24.6810   15.7480 H       1  LIG1        0.1702
     32 C          26.2270   24.6650   13.6710 C.ar    1  LIG1        0.0427
     33 H          26.4280   25.7310   13.5610 H       1  LIG1        0.1564
     34 C          25.7820   23.9130   12.5750 C.ar    1  LIG1       -0.5041
     35 C          25.5220   22.5490   12.7600 C.ar    1  LIG1        0.0010
     36 H          25.1710   21.9390   11.9290 H       1  LIG1        0.1648
     37 C          25.7150   21.9490   14.0100 C.ar    1  LIG1       -0.2572
     38 H          25.5210   20.8820   14.1120 H       1  LIG1        0.1650
     39 C          25.5530   24.5670   11.2360 C.3     1  LIG1        1.5036
     40 F          25.7210   23.7200   10.1760 F       1  LIG1       -0.4626
     41 F          26.3930   25.6190   10.9900 F       1  LIG1       -0.4628
     42 F          24.2890   25.0720   11.1040 F       1  LIG1       -0.4648
@<TRIPOS>BOND
     1     1     2    2
     2     2     3    1
     3     3     4    1
     4     3     5    1
     5     3     6    1
     6     6     7    1
     7     6     8    1
     8     6     9    1
     9     9    10    1
    10     9    11    1
    11     9     1    1
    12     2    12    1
    13    12    13   ar
    14    13    14    1
    15    13    15   ar
    16    15    16    1
    17    15    17   ar
    18    17    18   ar
    19    18    19    1
    20    18    20   ar
    21    20    21    1
    22    20    12   ar
    23    17    22    1
    24    22    23    2
    25    22    24    2
    26    22    25    1
    27    25    26    1
    28    25    27    1
    29    25    28    1
    30     1    29    1
    31    29    30   ar
    32    30    31    1
    33    30    32   ar
    34    32    33    1
    35    32    34   ar
    36    34    35   ar
    37    35    36    1
    38    35    37   ar
    39    37    38    1
    40    37    29   ar
    41    34    39    1
    42    39    40    1
    43    39    41    1
    44    39    42    1
