@<TRIPOS>MOLECULE
6_8a
 38 40 0 0 0
SMALL
USER_CHARGES
****
From 3DB ct
@<TRIPOS>ATOM
      1 C          26.3820   22.0700   16.4150 C.2     1  LIG1        0.1024
      2 C          25.4950   21.4960   17.2530 C.2     1  LIG1       -0.2286
      3 C          26.1790   20.9460   18.4750 C.3     1  LIG1       -0.0579
      4 H          25.8690   19.9290   18.7330 H       1  LIG1        0.0468
      5 H          25.9950   21.5990   19.3360 H       1  LIG1        0.0736
      6 C          27.6520   20.9650   18.0780 C.3     1  LIG1       -0.0742
      7 H          27.9380   19.9860   17.6700 H       1  LIG1        0.0552
      8 H          28.3080   21.1660   18.9300 H       1  LIG1        0.0338
      9 C          27.7700   22.0300   16.9940 C.3     1  LIG1       -0.1314
     10 H          28.0370   23.0000   17.4270 H       1  LIG1        0.0908
     11 H          28.5280   21.7460   16.2560 H       1  LIG1        0.0596
     12 C          24.0380   21.3850   17.1180 C.ar    1  LIG1        0.3143
     13 C          23.3300   22.2620   16.2820 C.ar    1  LIG1       -0.2859
     14 H          23.8550   23.0330   15.7190 H       1  LIG1        0.1689
     15 C          21.9400   22.1700   16.1610 C.ar    1  LIG1        0.0696
     16 H          21.4100   22.8580   15.5060 H       1  LIG1        0.1754
     17 C          21.2460   21.2020   16.8900 C.ar    1  LIG1       -0.6038
     18 C          21.9340   20.3210   17.7270 C.ar    1  LIG1        0.0469
     19 H          21.4030   19.5590   18.2940 H       1  LIG1        0.1774
     20 C          23.3250   20.4190   17.8420 C.ar    1  LIG1       -0.3285
     21 H          23.8440   19.7200   18.4950 H       1  LIG1        0.2164
     22 S          19.4880   21.0710   16.7100 S.O2    1  LIG1        2.4364
     23 O          18.9330   22.3800   16.4140 O.2     1  LIG1       -0.9948
     24 O          18.9580   20.2750   17.8030 O.2     1  LIG1       -0.9947
     25 N          19.3440   20.1560   15.3130 N.3     1  LIG1       -1.3096
     26 H          18.8670   20.6820   14.5760 H       1  LIG1        0.4835
     27 H          18.8740   19.2670   15.5010 H       1  LIG1        0.4867
     28 C          26.1530   22.6990   15.1080 C.ar    1  LIG1       -0.0842
     29 C          26.4180   24.0640   14.9210 C.ar    1  LIG1       -0.0636
     30 H          26.7700   24.6810   15.7470 H       1  LIG1        0.1527
     31 C          26.2190   24.6660   13.6750 C.ar    1  LIG1       -0.3973
     32 H          26.4180   25.7250   13.5370 H       1  LIG1        0.2285
     33 C          25.7630   23.9010   12.6100 C.ar    1  LIG1        0.5842
     34 C          25.5060   22.5460   12.7650 C.ar    1  LIG1       -0.4107
     35 H          25.1570   21.9590   11.9210 H       1  LIG1        0.2310
     36 C          25.7050   21.9450   14.0110 C.ar    1  LIG1       -0.0510
     37 H          25.5140   20.8780   14.1130 H       1  LIG1        0.1521
     38 F          25.5740   24.4770   11.4150 F       1  LIG1       -0.3701
@<TRIPOS>BOND
     1     1     2    2
     2     2     3    1
     3     3     4    1
     4     3     5    1
     5     3     6    1
     6     6     7    1
     7     6     8    1
     8     6     9    1
     9     9    10    1
    10     9    11    1
    11     9     1    1
    12     2    12    1
    13    12    13   ar
    14    13    14    1
    15    13    15   ar
    16    15    16    1
    17    15    17   ar
    18    17    18   ar
    19    18    19    1
    20    18    20   ar
    21    20    21    1
    22    20    12   ar
    23    17    22    1
    24    22    23    2
    25    22    24    2
    26    22    25    1
    27    25    26    1
    28    25    27    1
    29     1    28    1
    30    28    29   ar
    31    29    30    1
    32    29    31   ar
    33    31    32    1
    34    31    33   ar
    35    33    34   ar
    36    34    35    1
    37    34    36   ar
    38    36    37    1
    39    36    28   ar
    40    33    38    1
