@<TRIPOS>MOLECULE
6_8i
 42 44 0 0 0
SMALL
USER_CHARGES
****
From 3DB ct
@<TRIPOS>ATOM
      1 C          26.3830   22.0710   16.4160 C.2     1  LIG1        0.2453
      2 C          25.4950   21.4970   17.2530 C.2     1  LIG1       -0.3228
      3 C          26.1770   20.9420   18.4730 C.3     1  LIG1       -0.0575
      4 H          25.8650   19.9250   18.7270 H       1  LIG1        0.0500
      5 H          25.9940   21.5920   19.3360 H       1  LIG1        0.0759
      6 C          27.6500   20.9580   18.0760 C.3     1  LIG1       -0.0686
      7 H          27.9340   19.9810   17.6640 H       1  LIG1        0.0521
      8 H          28.3070   21.1550   18.9290 H       1  LIG1        0.0349
      9 C          27.7700   22.0270   16.9960 C.3     1  LIG1       -0.1632
     10 H          28.0380   22.9960   17.4330 H       1  LIG1        0.0948
     11 H          28.5290   21.7460   16.2580 H       1  LIG1        0.0690
     12 C          24.0380   21.3880   17.1160 C.ar    1  LIG1        0.3837
     13 C          23.3320   22.2650   16.2780 C.ar    1  LIG1       -0.2971
     14 H          23.8590   23.0340   15.7150 H       1  LIG1        0.1776
     15 C          21.9420   22.1750   16.1550 C.ar    1  LIG1        0.0579
     16 H          21.4180   22.8650   15.4980 H       1  LIG1        0.1789
     17 C          21.2460   21.2090   16.8840 C.ar    1  LIG1       -0.6081
     18 C          21.9330   20.3270   17.7220 C.ar    1  LIG1        0.0716
     19 H          21.3970   19.5680   18.2880 H       1  LIG1        0.1690
     20 C          23.3230   20.4230   17.8400 C.ar    1  LIG1       -0.3588
     21 H          23.8420   19.7240   18.4940 H       1  LIG1        0.2220
     22 S          19.4890   21.0620   16.7170 S.O2    1  LIG1        2.4259
     23 O          18.9290   22.3720   16.4310 O.2     1  LIG1       -0.9913
     24 O          18.9640   20.2590   17.8080 O.2     1  LIG1       -0.9924
     25 N          19.3430   20.1440   15.3240 N.3     1  LIG1       -1.3089
     26 H          18.8530   20.6620   14.5900 H       1  LIG1        0.4850
     27 H          18.8860   19.2490   15.5190 H       1  LIG1        0.4867
     28 C          26.1540   22.7030   15.1100 C.ar    1  LIG1       -0.2248
     29 C          26.4180   24.0630   14.9240 C.ar    1  LIG1       -0.2572
     30 H          26.7690   24.6880   15.7410 H       1  LIG1        0.2152
     31 C          26.2140   24.6510   13.6770 C.ar    1  LIG1        0.3432
     32 C          25.7570   23.9120   12.5820 C.ar    1  LIG1        0.2844
     33 C          25.5060   22.5520   12.7580 C.ar    1  LIG1       -0.3961
     34 H          25.1560   21.9190   11.9470 H       1  LIG1        0.2265
     35 C          25.7080   21.9550   14.0110 C.ar    1  LIG1        0.0330
     36 H          25.5180   20.8870   14.1120 H       1  LIG1        0.1325
     37 O          25.6000   24.6100   11.4150 O.3     1  LIG1       -0.3769
     38 C          25.9150   26.0010   11.4520 C.3     1  LIG1        0.0477
     39 H          25.7430   26.4070   10.4510 H       1  LIG1        0.0827
     40 H          26.9690   26.1600   11.7010 H       1  LIG1        0.0714
     41 H          25.2570   26.5350   12.1460 H       1  LIG1        0.0684
     42 F          26.4690   25.9620   13.5370 F       1  LIG1       -0.3618
@<TRIPOS>BOND
     1     1     2    2
     2     2     3    1
     3     3     4    1
     4     3     5    1
     5     3     6    1
     6     6     7    1
     7     6     8    1
     8     6     9    1
     9     9    10    1
    10     9    11    1
    11     9     1    1
    12     2    12    1
    13    12    13   ar
    14    13    14    1
    15    13    15   ar
    16    15    16    1
    17    15    17   ar
    18    17    18   ar
    19    18    19    1
    20    18    20   ar
    21    20    21    1
    22    20    12   ar
    23    17    22    1
    24    22    23    2
    25    22    24    2
    26    22    25    1
    27    25    26    1
    28    25    27    1
    29     1    28    1
    30    28    29   ar
    31    29    30    1
    32    29    31   ar
    33    31    32   ar
    34    32    33   ar
    35    33    34    1
    36    33    35   ar
    37    35    36    1
    38    35    28   ar
    39    32    37    1
    40    37    38    1
    41    38    39    1
    42    38    40    1
    43    38    41    1
    44    31    42    1
