@<TRIPOS>MOLECULE
8_1r
 39 41 0 0 0
SMALL
USER_CHARGES
****
From 3DB ct
@<TRIPOS>ATOM
      1 C          21.2480   21.1840   16.9490 C.ar    1  LIG1       -0.6315
      2 C          21.9640   20.3190   17.7750 C.ar    1  LIG1        0.0646
      3 H          21.4560   19.5570   18.3630 H       1  LIG1        0.1857
      4 C          23.3570   20.4340   17.8550 C.ar    1  LIG1       -0.2194
      5 H          23.8910   19.7440   18.5080 H       1  LIG1        0.1873
      6 C          24.0460   21.4010   17.0980 C.ar    1  LIG1        0.3416
      7 C          23.3080   22.2710   16.2830 C.ar    1  LIG1       -0.3103
      8 H          23.7710   23.0770   15.7230 H       1  LIG1        0.1763
      9 C          21.9150   22.1580   16.2020 C.ar    1  LIG1        0.1076
     10 H          21.3580   22.8430   15.5650 H       1  LIG1        0.1756
     11 N          25.4710   21.4890   17.2160 N.ar    1  LIG1       -0.0270
     12 C          26.4140   22.1450   16.4230 C.ar    1  LIG1        0.2177
     13 C          26.2130   22.7300   15.0990 C.ar    1  LIG1       -0.2155
     14 C          26.4660   24.0890   14.8820 C.ar    1  LIG1        0.0492
     15 H          26.7840   24.7310   15.7010 H       1  LIG1        0.1485
     16 C          26.2980   24.6460   13.6080 C.ar    1  LIG1       -0.5298
     17 H          26.4820   25.7100   13.4710 H       1  LIG1        0.2100
     18 C          25.9080   23.8550   12.5260 C.ar    1  LIG1        0.7821
     19 C          25.6430   22.5030   12.7490 C.ar    1  LIG1       -0.5350
     20 H          25.3100   21.8670   11.9300 H       1  LIG1        0.2134
     21 C          25.8090   21.9380   14.0190 C.ar    1  LIG1        0.0133
     22 H          25.6150   20.8750   14.1520 H       1  LIG1        0.1574
     23 N          25.6840   24.4210   11.2860 N.pl3   1  LIG1       -1.2591
     24 H          25.5240   23.8330   10.4710 H       1  LIG1        0.5282
     25 H          25.9950   25.3690   11.0880 H       1  LIG1        0.5285
     26 C          27.6090   22.0630   17.1140 C.ar    1  LIG1       -0.4293
     27 H          28.5610   22.4790   16.8050 H       1  LIG1        0.2670
     28 C          27.3620   21.2650   18.2490 C.ar    1  LIG1       -0.1583
     29 N          26.0770   20.8680   18.2790 N.ar    1  LIG1       -0.2952
     30 C          28.3700   20.8490   19.2870 C.3     1  LIG1        1.5028
     31 F          27.9220   21.0420   20.5630 F       1  LIG1       -0.4549
     32 F          29.5460   21.5390   19.1910 F       1  LIG1       -0.4587
     33 F          28.6970   19.5260   19.1920 F       1  LIG1       -0.4497
     34 S          19.4870   21.0400   16.8130 S.O2    1  LIG1        2.4268
     35 O          18.9470   22.2460   16.2100 O.2     1  LIG1       -0.9917
     36 O          18.9570   20.5430   18.0700 O.2     1  LIG1       -0.9858
     37 N          19.3190   19.8170   15.6810 N.3     1  LIG1       -1.3028
     38 H          18.8430   20.1560   14.8410 H       1  LIG1        0.4834
     39 H          18.8390   19.0070   16.0810 H       1  LIG1        0.4870
@<TRIPOS>BOND
     1     1     2   ar
     2     2     3    1
     3     2     4   ar
     4     4     5    1
     5     4     6   ar
     6     6     7   ar
     7     7     8    1
     8     7     9   ar
     9     9    10    1
    10     9     1   ar
    11     6    11    1
    12    11    12   ar
    13    12    13    1
    14    13    14   ar
    15    14    15    1
    16    14    16   ar
    17    16    17    1
    18    16    18   ar
    19    18    19   ar
    20    19    20    1
    21    19    21   ar
    22    21    22    1
    23    21    13   ar
    24    18    23    1
    25    23    24    1
    26    23    25    1
    27    12    26   ar
    28    26    27    1
    29    26    28   ar
    30    28    29   ar
    31    29    11   ar
    32    28    30    1
    33    30    31    1
    34    30    32    1
    35    30    33    1
    36     1    34    1
    37    34    35    2
    38    34    36    2
    39    34    37    1
    40    37    38    1
    41    37    39    1
