@<TRIPOS>MOLECULE
8_1t
 42 44 0 0 0
SMALL
USER_CHARGES
****
From 3DB ct
@<TRIPOS>ATOM
      1 C          21.2480   21.1870   16.9490 C.ar    1  LIG1       -0.6238
      2 C          21.9640   20.3210   17.7760 C.ar    1  LIG1        0.0687
      3 H          21.4560   19.5590   18.3620 H       1  LIG1        0.1842
      4 C          23.3570   20.4360   17.8570 C.ar    1  LIG1       -0.2240
      5 H          23.8900   19.7460   18.5090 H       1  LIG1        0.1889
      6 C          24.0470   21.4020   17.0990 C.ar    1  LIG1        0.3310
      7 C          23.3100   22.2730   16.2850 C.ar    1  LIG1       -0.3014
      8 H          23.7740   23.0780   15.7250 H       1  LIG1        0.1757
      9 C          21.9160   22.1600   16.2020 C.ar    1  LIG1        0.0941
     10 H          21.3610   22.8460   15.5650 H       1  LIG1        0.1778
     11 N          25.4720   21.4880   17.2170 N.ar    1  LIG1       -0.0035
     12 C          26.4150   22.1440   16.4230 C.ar    1  LIG1        0.1734
     13 C          26.2120   22.7300   15.1000 C.ar    1  LIG1       -0.1538
     14 C          26.4680   24.0850   14.8790 C.ar    1  LIG1       -0.0460
     15 H          26.7990   24.7260   15.6960 H       1  LIG1        0.1620
     16 C          26.2940   24.6450   13.6060 C.ar    1  LIG1       -0.3376
     17 H          26.5000   25.7070   13.4870 H       1  LIG1        0.1721
     18 C          25.8720   23.8690   12.5210 C.ar    1  LIG1        0.5143
     19 C          25.6360   22.5080   12.7520 C.ar    1  LIG1       -0.5140
     20 H          25.3140   21.8640   11.9350 H       1  LIG1        0.1990
     21 C          25.8070   21.9390   14.0210 C.ar    1  LIG1        0.0330
     22 H          25.6200   20.8750   14.1500 H       1  LIG1        0.1463
     23 N          25.6870   24.3760   11.2520 N.pl3   1  LIG1       -0.7418
     24 H          25.3720   23.7480   10.5110 H       1  LIG1        0.4409
     25 C          25.8930   25.7620   10.8860 C.3     1  LIG1        0.0484
     26 H          25.6740   25.8950    9.8220 H       1  LIG1        0.0744
     27 H          26.9320   26.0630   11.0540 H       1  LIG1        0.0567
     28 H          25.2260   26.4210   11.4490 H       1  LIG1        0.0577
     29 C          27.6100   22.0620   17.1140 C.ar    1  LIG1       -0.4115
     30 H          28.5620   22.4790   16.8060 H       1  LIG1        0.2650
     31 C          27.3630   21.2640   18.2500 C.ar    1  LIG1       -0.1626
     32 N          26.0780   20.8660   18.2790 N.ar    1  LIG1       -0.2977
     33 C          28.3690   20.8510   19.2900 C.3     1  LIG1        1.4987
     34 F          27.9330   21.0820   20.5640 F       1  LIG1       -0.4530
     35 F          29.5580   21.5150   19.1720 F       1  LIG1       -0.4582
     36 F          28.6700   19.5200   19.2240 F       1  LIG1       -0.4488
     37 S          19.4880   21.0390   16.8090 S.O2    1  LIG1        2.4270
     38 O          18.9320   22.2960   16.3390 O.2     1  LIG1       -0.9924
     39 O          18.9720   20.4080   18.0100 O.2     1  LIG1       -0.9860
     40 N          19.3250   19.9380   15.5570 N.3     1  LIG1       -1.3049
     41 H          18.8410   20.3580   14.7580 H       1  LIG1        0.4836
     42 H          18.8540   19.0870   15.8730 H       1  LIG1        0.4878
@<TRIPOS>BOND
     1     1     2   ar
     2     2     3    1
     3     2     4   ar
     4     4     5    1
     5     4     6   ar
     6     6     7   ar
     7     7     8    1
     8     7     9   ar
     9     9    10    1
    10     9     1   ar
    11     6    11    1
    12    11    12   ar
    13    12    13    1
    14    13    14   ar
    15    14    15    1
    16    14    16   ar
    17    16    17    1
    18    16    18   ar
    19    18    19   ar
    20    19    20    1
    21    19    21   ar
    22    21    22    1
    23    21    13   ar
    24    18    23    1
    25    23    24    1
    26    23    25    1
    27    25    26    1
    28    25    27    1
    29    25    28    1
    30    12    29   ar
    31    29    30    1
    32    29    31   ar
    33    31    32   ar
    34    32    11   ar
    35    31    33    1
    36    33    34    1
    37    33    35    1
    38    33    36    1
    39     1    37    1
    40    37    38    2
    41    37    39    2
    42    37    40    1
    43    40    41    1
    44    40    42    1
