@<TRIPOS>MOLECULE
8_1x
 44 46 0 0 0
SMALL
USER_CHARGES
****
From 3DB ct
@<TRIPOS>ATOM
      1 C          21.2500   21.1840   16.9470 C.ar    1  LIG1       -0.6112
      2 C          21.9650   20.3180   17.7730 C.ar    1  LIG1        0.0531
      3 H          21.4560   19.5560   18.3600 H       1  LIG1        0.1887
      4 C          23.3570   20.4320   17.8530 C.ar    1  LIG1       -0.2100
      5 H          23.8910   19.7410   18.5060 H       1  LIG1        0.1887
      6 C          24.0470   21.3980   17.0970 C.ar    1  LIG1        0.3351
      7 C          23.3110   22.2690   16.2820 C.ar    1  LIG1       -0.2745
      8 H          23.7750   23.0760   15.7250 H       1  LIG1        0.1486
      9 C          21.9170   22.1570   16.2000 C.ar    1  LIG1        0.0787
     10 H          21.3610   22.8440   15.5640 H       1  LIG1        0.1857
     11 N          25.4720   21.4860   17.2160 N.ar    1  LIG1       -0.0496
     12 C          26.4140   22.1450   16.4240 C.ar    1  LIG1        0.2163
     13 C          26.2110   22.7270   15.0990 C.ar    1  LIG1       -0.0200
     14 C          26.4670   24.0850   14.8780 C.ar    1  LIG1       -0.2227
     15 H          26.7960   24.7120   15.7070 H       1  LIG1        0.1949
     16 C          26.2960   24.6540   13.6040 C.ar    1  LIG1        0.1204
     17 C          25.8690   23.8470   12.5340 C.ar    1  LIG1        0.1618
     18 C          25.6310   22.4880   12.7520 C.ar    1  LIG1       -0.1672
     19 H          25.3080   21.8240   11.9540 H       1  LIG1        0.1869
     20 C          25.8060   21.9310   14.0230 C.ar    1  LIG1       -0.1953
     21 H          25.6210   20.8670   14.1610 H       1  LIG1        0.1834
     22 O          25.7250   24.4830   11.3280 O.3     1  LIG1       -0.4215
     23 C          26.0130   25.8800   11.2890 C.3     1  LIG1        0.1593
     24 H          25.8580   26.2220   10.2610 H       1  LIG1        0.0534
     25 H          27.0580   26.0740   11.5520 H       1  LIG1        0.0291
     26 H          25.3280   26.4400   11.9340 H       1  LIG1        0.0277
     27 C          26.5680   26.1210   13.4060 C.3     1  LIG1       -0.3139
     28 H          27.3470   26.2650   12.6500 H       1  LIG1        0.0973
     29 H          26.9130   26.5950   14.3310 H       1  LIG1        0.0931
     30 H          25.6540   26.6350   13.0900 H       1  LIG1        0.1201
     31 C          27.6080   22.0700   17.1190 C.ar    1  LIG1       -0.4389
     32 H          28.5580   22.4910   16.8130 H       1  LIG1        0.2750
     33 C          27.3610   21.2700   18.2530 C.ar    1  LIG1       -0.1514
     34 N          26.0780   20.8650   18.2780 N.ar    1  LIG1       -0.2867
     35 C          28.3670   20.8610   19.2960 C.3     1  LIG1        1.5161
     36 F          27.9340   21.1110   20.5680 F       1  LIG1       -0.4570
     37 F          29.5600   21.5140   19.1680 F       1  LIG1       -0.4628
     38 F          28.6570   19.5270   19.2450 F       1  LIG1       -0.4525
     39 S          19.4880   21.0460   16.8140 S.O2    1  LIG1        2.4324
     40 O          18.9360   22.3060   16.3480 O.2     1  LIG1       -0.9920
     41 O          18.9750   20.4140   18.0160 O.2     1  LIG1       -0.9883
     42 N          19.3140   19.9510   15.5590 N.3     1  LIG1       -1.3006
     43 H          18.8270   20.3750   14.7650 H       1  LIG1        0.4830
     44 H          18.8410   19.1000   15.8740 H       1  LIG1        0.4871
@<TRIPOS>BOND
     1     1     2   ar
     2     2     3    1
     3     2     4   ar
     4     4     5    1
     5     4     6   ar
     6     6     7   ar
     7     7     8    1
     8     7     9   ar
     9     9    10    1
    10     9     1   ar
    11     6    11    1
    12    11    12   ar
    13    12    13    1
    14    13    14   ar
    15    14    15    1
    16    14    16   ar
    17    16    17   ar
    18    17    18   ar
    19    18    19    1
    20    18    20   ar
    21    20    21    1
    22    20    13   ar
    23    17    22    1
    24    22    23    1
    25    23    24    1
    26    23    25    1
    27    23    26    1
    28    16    27    1
    29    27    28    1
    30    27    29    1
    31    27    30    1
    32    12    31   ar
    33    31    32    1
    34    31    33   ar
    35    33    34   ar
    36    34    11   ar
    37    33    35    1
    38    35    36    1
    39    35    37    1
    40    35    38    1
    41     1    39    1
    42    39    40    2
    43    39    41    2
    44    39    42    1
    45    42    43    1
    46    42    44    1
