@<TRIPOS>MOLECULE
8_25a
 40 42 0 0 0
SMALL
USER_CHARGES
****
From 3DB ct
@<TRIPOS>ATOM
      1 C          21.2500   21.1830   16.9390 C.ar    1  LIG1       -0.6289
      2 C          21.9670   20.3230   17.7680 C.ar    1  LIG1        0.0868
      3 H          21.4620   19.5580   18.3540 H       1  LIG1        0.1835
      4 C          23.3590   20.4460   17.8530 C.ar    1  LIG1       -0.2403
      5 H          23.8920   19.7570   18.5080 H       1  LIG1        0.1920
      6 C          24.0480   21.4160   17.0990 C.ar    1  LIG1        0.3498
      7 C          23.3090   22.2790   16.2800 C.ar    1  LIG1       -0.3471
      8 H          23.7650   23.0870   15.7190 H       1  LIG1        0.1837
      9 C          21.9150   22.1590   16.1930 C.ar    1  LIG1        0.1182
     10 H          21.3580   22.8400   15.5530 H       1  LIG1        0.1742
     11 N          25.4750   21.5030   17.2230 N.ar    1  LIG1        0.0386
     12 C          26.4280   22.1380   16.4240 C.ar    1  LIG1       -0.2057
     13 C          26.2080   22.7300   15.1040 C.ar    1  LIG1        0.5208
     14 C          26.4630   24.0900   14.8880 C.ar    1  LIG1       -0.4560
     15 H          26.8030   24.7260   15.7040 H       1  LIG1        0.2221
     16 C          26.2770   24.6510   13.6210 C.ar    1  LIG1        0.3068
     17 H          26.4730   25.7100   13.4690 H       1  LIG1        0.0741
     18 C          25.8440   23.8510   12.5660 C.ar    1  LIG1       -0.6353
     19 C          25.5990   22.4940   12.7650 C.ar    1  LIG1        0.2852
     20 H          25.2660   21.8640   11.9430 H       1  LIG1        0.0822
     21 C          25.7850   21.9320   14.0310 C.ar    1  LIG1       -0.4734
     22 H          25.5990   20.8690   14.1710 H       1  LIG1        0.2271
     23 CL         25.6140   24.5420   11.0060 Cl      1  LIG1        0.1303
     24 C          27.6420   22.0210   17.0930 C.ar    1  LIG1        0.0458
     25 C          27.3630   21.2510   18.2540 C.ar    1  LIG1       -0.2919
     26 N          26.0680   20.8950   18.2950 N.ar    1  LIG1       -0.2673
     27 C          28.3520   20.8250   19.3140 C.3     1  LIG1        1.5922
     28 F          29.0540   21.8820   19.8190 F       1  LIG1       -0.4742
     29 F          29.2780   19.9460   18.8300 F       1  LIG1       -0.4662
     30 F          27.7670   20.2110   20.3850 F       1  LIG1       -0.4645
     31 C          28.9650   22.5540   16.6630 C.3     1  LIG1       -0.3641
     32 H          29.0120   23.6340   16.8370 H       1  LIG1        0.1273
     33 H          29.1350   22.3650   15.5980 H       1  LIG1        0.1148
     34 H          29.7860   22.0850   17.2140 H       1  LIG1        0.1346
     35 S          19.4910   21.0300   16.7960 S.O2    1  LIG1        2.4210
     36 O          18.9310   22.2850   16.3250 O.2     1  LIG1       -0.9861
     37 O          18.9750   20.3980   17.9970 O.2     1  LIG1       -0.9816
     38 N          19.3320   19.9300   15.5430 N.3     1  LIG1       -1.3050
     39 H          18.8480   20.3470   14.7450 H       1  LIG1        0.4864
     40 H          18.8650   19.0760   15.8590 H       1  LIG1        0.4902
@<TRIPOS>BOND
     1     1     2   ar
     2     2     3    1
     3     2     4   ar
     4     4     5    1
     5     4     6   ar
     6     6     7   ar
     7     7     8    1
     8     7     9   ar
     9     9    10    1
    10     9     1   ar
    11     6    11    1
    12    11    12   ar
    13    12    13    1
    14    13    14   ar
    15    14    15    1
    16    14    16   ar
    17    16    17    1
    18    16    18   ar
    19    18    19   ar
    20    19    20    1
    21    19    21   ar
    22    21    22    1
    23    21    13   ar
    24    18    23    1
    25    12    24   ar
    26    24    25   ar
    27    25    26   ar
    28    26    11   ar
    29    25    27    1
    30    27    28    1
    31    27    29    1
    32    27    30    1
    33    24    31    1
    34    31    32    1
    35    31    33    1
    36    31    34    1
    37     1    35    1
    38    35    36    2
    39    35    37    2
    40    35    38    1
    41    38    39    1
    42    38    40    1
