@<TRIPOS>MOLECULE
8_2m
 37 39 0 0 0
SMALL
USER_CHARGES
****
From 3DB ct
@<TRIPOS>ATOM
      1 C          21.2560   21.1770   16.9270 C.ar    1  LIG1       -0.6365
      2 C          21.9660   20.3140   17.7630 C.ar    1  LIG1        0.0909
      3 H          21.4530   19.5570   18.3510 H       1  LIG1        0.1836
      4 C          23.3590   20.4200   17.8430 C.ar    1  LIG1       -0.2983
      5 H          23.8920   19.7290   18.4950 H       1  LIG1        0.2118
      6 C          24.0510   21.3800   17.0820 C.ar    1  LIG1        0.4772
      7 C          23.3200   22.2610   16.2730 C.ar    1  LIG1       -0.3936
      8 H          23.7940   23.0710   15.7250 H       1  LIG1        0.2130
      9 C          21.9260   22.1580   16.1920 C.ar    1  LIG1        0.1324
     10 H          21.3740   22.8520   15.5610 H       1  LIG1        0.1677
     11 N          25.4740   21.4650   17.1980 N.ar    1  LIG1       -0.2026
     12 C          26.4050   22.1710   16.4450 C.ar    1  LIG1        0.3026
     13 C          26.2230   22.7670   15.1570 C.ar    1  LIG1       -0.0362
     14 O          26.4780   24.0950   14.9270 O.2     1  LIG1       -0.1819
     15 C          26.2420   24.3480   13.6110 C.ar    1  LIG1        0.3150
     16 C          25.8570   23.1930   12.9710 C.ar    1  LIG1       -0.4227
     17 H          25.6140   23.0910   11.9210 H       1  LIG1        0.2577
     18 C          25.8580   22.1770   13.9580 C.ar    1  LIG1       -0.1839
     19 H          25.6210   21.1310   13.8090 H       1  LIG1        0.2150
     20 C          26.4470   25.7400   13.1610 C.3     1  LIG1       -0.3857
     21 H          26.2150   25.8470   12.0970 H       1  LIG1        0.1263
     22 H          27.4870   26.0430   13.3170 H       1  LIG1        0.1380
     23 H          25.8000   26.4210   13.7210 H       1  LIG1        0.1361
     24 C          27.5830   22.1380   17.1650 C.ar    1  LIG1       -0.5022
     25 H          28.5160   22.6160   16.8960 H       1  LIG1        0.2889
     26 C          27.3480   21.2710   18.2520 C.ar    1  LIG1       -0.0581
     27 N          26.0880   20.8030   18.2310 N.ar    1  LIG1       -0.2144
     28 C          28.3410   20.8540   19.2980 C.3     1  LIG1        1.0279
     29 H          29.3060   21.3530   19.1740 H       1  LIG1       -0.0104
     30 F          28.5500   19.5010   19.2720 F       1  LIG1       -0.4272
     31 F          27.8780   21.1240   20.5580 F       1  LIG1       -0.4470
     32 S          19.4880   21.0770   16.8450 S.O2    1  LIG1        2.4140
     33 O          18.9560   22.3670   16.4430 O.2     1  LIG1       -0.9859
     34 O          18.9870   20.4130   18.0360 O.2     1  LIG1       -0.9835
     35 N          19.2560   20.0230   15.5650 N.3     1  LIG1       -1.2976
     36 H          18.7530   20.4780   14.7990 H       1  LIG1        0.4840
     37 H          18.7800   19.1700   15.8700 H       1  LIG1        0.4855
@<TRIPOS>BOND
     1     1     2   ar
     2     2     3    1
     3     2     4   ar
     4     4     5    1
     5     4     6   ar
     6     6     7   ar
     7     7     8    1
     8     7     9   ar
     9     9    10    1
    10     9     1   ar
    11     6    11    1
    12    11    12   ar
    13    12    13    1
    14    13    14   ar
    15    14    15   ar
    16    15    16   ar
    17    16    17    1
    18    16    18   ar
    19    18    19    1
    20    18    13   ar
    21    15    20    1
    22    20    21    1
    23    20    22    1
    24    20    23    1
    25    12    24   ar
    26    24    25    1
    27    24    26   ar
    28    26    27   ar
    29    27    11   ar
    30    26    28    1
    31    28    29    1
    32    28    30    1
    33    28    31    1
    34     1    32    1
    35    32    33    2
    36    32    34    2
    37    32    35    1
    38    35    36    1
    39    35    37    1
