@<TRIPOS>MOLECULE
8_2o
 37 39 0 0 0
SMALL
USER_CHARGES
****
From 3DB ct
@<TRIPOS>ATOM
      1 C          21.2470   21.1930   16.9430 C.ar    1  LIG1       -0.6226
      2 C          21.9620   20.3260   17.7700 C.ar    1  LIG1        0.0780
      3 H          21.4490   19.5660   18.3560 H       1  LIG1        0.1791
      4 C          23.3540   20.4400   17.8530 C.ar    1  LIG1       -0.2515
      5 H          23.8870   19.7500   18.5070 H       1  LIG1        0.1991
      6 C          24.0450   21.4060   17.0960 C.ar    1  LIG1        0.3484
      7 C          23.3090   22.2760   16.2810 C.ar    1  LIG1       -0.3357
      8 H          23.7730   23.0810   15.7200 H       1  LIG1        0.1873
      9 C          21.9140   22.1650   16.1970 C.ar    1  LIG1        0.1082
     10 H          21.3640   22.8520   15.5570 H       1  LIG1        0.1755
     11 N          25.4710   21.4910   17.2160 N.ar    1  LIG1        0.0584
     12 C          26.4160   22.1430   16.4220 C.ar    1  LIG1        0.0048
     13 C          26.2140   22.7290   15.0980 C.ar    1  LIG1        0.0618
     14 C          26.4730   24.0890   14.8820 C.ar    1  LIG1       -0.1438
     15 H          26.8030   24.7260   15.7020 H       1  LIG1        0.1624
     16 C          26.3000   24.6490   13.6150 C.ar    1  LIG1       -0.1483
     17 H          26.4960   25.7090   13.4570 H       1  LIG1        0.1551
     18 C          25.8800   23.8530   12.5510 C.ar    1  LIG1       -0.1013
     19 H          25.7460   24.2900   11.5630 H       1  LIG1        0.1490
     20 C          25.6360   22.4950   12.7510 C.ar    1  LIG1       -0.1711
     21 H          25.3150   21.8710   11.9190 H       1  LIG1        0.1610
     22 C          25.8080   21.9330   14.0180 C.ar    1  LIG1       -0.1474
     23 H          25.6220   20.8690   14.1530 H       1  LIG1        0.1622
     24 C          27.6120   22.0570   17.1120 C.ar    1  LIG1       -0.3650
     25 H          28.5640   22.4700   16.8020 H       1  LIG1        0.2777
     26 C          27.3580   21.2620   18.2460 C.ar    1  LIG1       -0.0100
     27 N          26.0740   20.8720   18.2810 N.ar    1  LIG1       -0.3963
     28 C          28.3520   20.8440   19.2900 C.3     1  LIG1        0.9221
     29 H          27.9040   20.2020   20.0530 H       1  LIG1        0.0423
     30 F          28.9050   21.9300   19.9140 F       1  LIG1       -0.4282
     31 F          29.4070   20.1720   18.7320 F       1  LIG1       -0.4232
     32 S          19.4870   21.0260   16.8220 S.O2    1  LIG1        2.4185
     33 O          18.9240   22.2840   16.3640 O.2     1  LIG1       -0.9899
     34 O          18.9770   20.3840   18.0210 O.2     1  LIG1       -0.9847
     35 N          19.3220   19.9220   15.5730 N.3     1  LIG1       -1.3051
     36 H          18.8230   20.3330   14.7800 H       1  LIG1        0.4849
     37 H          18.8670   19.0650   15.8960 H       1  LIG1        0.4884
@<TRIPOS>BOND
     1     1     2   ar
     2     2     3    1
     3     2     4   ar
     4     4     5    1
     5     4     6   ar
     6     6     7   ar
     7     7     8    1
     8     7     9   ar
     9     9    10    1
    10     9     1   ar
    11     6    11    1
    12    11    12   ar
    13    12    13    1
    14    13    14   ar
    15    14    15    1
    16    14    16   ar
    17    16    17    1
    18    16    18   ar
    19    18    19    1
    20    18    20   ar
    21    20    21    1
    22    20    22   ar
    23    22    23    1
    24    22    13   ar
    25    12    24   ar
    26    24    25    1
    27    24    26   ar
    28    26    27   ar
    29    27    11   ar
    30    26    28    1
    31    28    29    1
    32    28    30    1
    33    28    31    1
    34     1    32    1
    35    32    33    2
    36    32    34    2
    37    32    35    1
    38    35    36    1
    39    35    37    1
