@<TRIPOS>MOLECULE
9_35
 46 49 0 0 0
SMALL
USER_CHARGES
****
From 3DB ct
@<TRIPOS>ATOM
      1 C          26.3840   22.0820   16.4200 C.2     1  LIG1       -0.0445
      2 C          25.4920   21.5020   17.2530 C.2     1  LIG1       -0.2096
      3 C          26.1770   20.9260   18.4750 C.3     1  LIG1       -0.0411
      4 H          26.0510   19.8400   18.5240 H       1  LIG1        0.0651
      5 H          25.7740   21.3780   19.3880 H       1  LIG1        0.0669
      6 C          27.6400   21.2770   18.3010 C.3     1  LIG1        0.0134
      7 C          27.7850   22.0290   16.9950 C.3     1  LIG1       -0.0617
      8 H          28.1760   23.0350   17.1770 H       1  LIG1        0.0705
      9 H          28.4580   21.4990   16.3120 H       1  LIG1        0.0694
     10 C          28.7240   20.3330   18.7750 C.3     1  LIG1       -0.3127
     11 H          29.6240   20.2360   18.1770 H       1  LIG1        0.1464
     12 H          28.4320   19.4170   19.2760 H       1  LIG1        0.1457
     13 C          28.4990   21.6290   19.4960 C.3     1  LIG1       -0.3090
     14 H          28.0550   21.5880   20.4850 H       1  LIG1        0.1470
     15 H          29.2470   22.4060   19.3860 H       1  LIG1        0.1460
     16 C          24.0340   21.3870   17.1130 C.ar    1  LIG1        0.3187
     17 C          23.3230   22.2630   16.2800 C.ar    1  LIG1       -0.2698
     18 H          23.8450   23.0360   15.7170 H       1  LIG1        0.1820
     19 C          21.9320   22.1690   16.1580 C.ar    1  LIG1       -0.0094
     20 H          21.4060   22.8580   15.5010 H       1  LIG1        0.1853
     21 C          21.2410   21.2010   16.8880 C.ar    1  LIG1       -0.5417
     22 C          21.9300   20.3200   17.7230 C.ar    1  LIG1        0.0060
     23 H          21.4020   19.5560   18.2900 H       1  LIG1        0.1773
     24 C          23.3210   20.4210   17.8380 C.ar    1  LIG1       -0.3148
     25 H          23.8400   19.7210   18.4910 H       1  LIG1        0.1977
     26 S          19.4760   21.0670   16.7200 S.O2    1  LIG1        2.2006
     27 O          18.9370   22.4110   16.5410 O.2     1  LIG1       -0.9760
     28 O          18.9810   20.2640   17.8340 O.2     1  LIG1       -0.9773
     29 C          19.2650   20.1570   15.2130 C.3     1  LIG1       -0.7413
     30 H          18.1930   20.0350   15.0390 H       1  LIG1        0.2365
     31 H          19.7380   19.1800   15.3170 H       1  LIG1        0.1943
     32 H          19.7130   20.7210   14.3920 H       1  LIG1        0.1927
     33 C          26.1590   22.7060   15.1100 C.ar    1  LIG1        0.0837
     34 C          26.4160   24.0690   14.9130 C.ar    1  LIG1       -0.2137
     35 H          26.7550   24.6950   15.7360 H       1  LIG1        0.1803
     36 C          26.2190   24.6610   13.6600 C.ar    1  LIG1       -0.2485
     37 H          26.4130   25.7270   13.5420 H       1  LIG1        0.1843
     38 C          25.7790   23.8980   12.5750 C.ar    1  LIG1        0.2090
     39 C          25.5170   22.5380   12.7670 C.ar    1  LIG1       -0.2970
     40 H          25.1600   21.9230   11.9410 H       1  LIG1        0.1938
     41 C          25.7140   21.9480   14.0190 C.ar    1  LIG1       -0.1520
     42 H          25.5200   20.8820   14.1310 H       1  LIG1        0.1468
     43 C          25.5340   24.5400   11.2410 C.3     1  LIG1       -0.3066
     44 H          25.7000   23.8260   10.4270 H       1  LIG1        0.0873
     45 H          26.2190   25.3790   11.0810 H       1  LIG1        0.0862
     46 H          24.5050   24.9070   11.1860 H       1  LIG1        0.0940
@<TRIPOS>BOND
     1     1     2    2
     2     2     3    1
     3     3     4    1
     4     3     5    1
     5     3     6    1
     6     6     7    1
     7     7     8    1
     8     7     9    1
     9     7     1    1
    10     6    10    1
    11    10    11    1
    12    10    12    1
    13    10    13    1
    14    13    14    1
    15    13    15    1
    16    13     6    1
    17     2    16    1
    18    16    17   ar
    19    17    18    1
    20    17    19   ar
    21    19    20    1
    22    19    21   ar
    23    21    22   ar
    24    22    23    1
    25    22    24   ar
    26    24    25    1
    27    24    16   ar
    28    21    26    1
    29    26    27    2
    30    26    28    2
    31    26    29    1
    32    29    30    1
    33    29    31    1
    34    29    32    1
    35     1    33    1
    36    33    34   ar
    37    34    35    1
    38    34    36   ar
    39    36    37    1
    40    36    38   ar
    41    38    39   ar
    42    39    40    1
    43    39    41   ar
    44    41    42    1
    45    41    33   ar
    46    38    43    1
    47    43    44    1
    48    43    45    1
    49    43    46    1
