@<TRIPOS>MOLECULE
9_53
 43 46 0 0 0
SMALL
USER_CHARGES
****
From 3DB ct
@<TRIPOS>ATOM
      1 C          26.3880   22.0870   16.4270 C.2     1  LIG1        0.1164
      2 C          25.4970   21.5030   17.2590 C.2     1  LIG1       -0.3004
      3 C          26.1850   20.9150   18.4720 C.3     1  LIG1       -0.1144
      4 H          26.0530   19.8290   18.5150 H       1  LIG1        0.0947
      5 H          25.7880   21.3620   19.3910 H       1  LIG1        0.0972
      6 C          27.6490   21.2590   18.2920 C.3     1  LIG1       -0.0315
      7 C          27.7910   22.0220   16.9920 C.3     1  LIG1        0.0613
      8 H          28.1910   23.0230   17.1820 H       1  LIG1        0.0533
      9 H          28.4570   21.4940   16.3010 H       1  LIG1        0.0352
     10 C          28.7310   20.3060   18.7520 C.3     1  LIG1       -0.3233
     11 H          29.6280   20.2100   18.1490 H       1  LIG1        0.1480
     12 H          28.4380   19.3870   19.2470 H       1  LIG1        0.1514
     13 C          28.5160   21.5960   19.4860 C.3     1  LIG1       -0.2810
     14 H          28.0770   21.5490   20.4760 H       1  LIG1        0.1434
     15 H          29.2660   22.3720   19.3780 H       1  LIG1        0.1432
     16 C          24.0400   21.3910   17.1150 C.ar    1  LIG1        0.4156
     17 C          23.3330   22.2680   16.2780 C.ar    1  LIG1       -0.3146
     18 H          23.8560   23.0440   15.7210 H       1  LIG1        0.1971
     19 C          21.9430   22.1750   16.1510 C.ar    1  LIG1       -0.0041
     20 H          21.4190   22.8640   15.4920 H       1  LIG1        0.1891
     21 C          21.2490   21.2060   16.8770 C.ar    1  LIG1       -0.5370
     22 C          21.9330   20.3250   17.7150 C.ar    1  LIG1        0.0030
     23 H          21.4030   19.5610   18.2790 H       1  LIG1        0.1794
     24 C          23.3240   20.4250   17.8360 C.ar    1  LIG1       -0.3384
     25 H          23.8400   19.7240   18.4900 H       1  LIG1        0.2045
     26 S          19.4840   21.0730   16.7050 S.O2    1  LIG1        2.1958
     27 O          18.9490   22.4150   16.4950 O.2     1  LIG1       -0.9715
     28 O          18.9810   20.2940   17.8320 O.2     1  LIG1       -0.9734
     29 C          19.2770   20.1330   15.2150 C.3     1  LIG1       -0.7353
     30 H          18.2060   20.0110   15.0380 H       1  LIG1        0.2383
     31 H          19.7460   19.1560   15.3430 H       1  LIG1        0.1920
     32 H          19.7310   20.6770   14.3850 H       1  LIG1        0.1907
     33 C          26.1520   22.7100   15.1190 C.ar    1  LIG1       -0.3464
     34 C          26.4000   24.0740   14.8980 C.ar    1  LIG1        0.6071
     35 C          26.1930   24.6600   13.6520 C.ar    1  LIG1       -0.6026
     36 H          26.3840   25.7160   13.5050 H       1  LIG1        0.2949
     37 C          25.7350   23.8730   12.6060 C.ar    1  LIG1        0.6685
     38 C          25.4860   22.5180   12.7860 C.ar    1  LIG1       -0.5021
     39 H          25.1320   21.9160   11.9540 H       1  LIG1        0.2541
     40 C          25.6970   21.9360   14.0400 C.ar    1  LIG1        0.0534
     41 H          25.5090   20.8710   14.1620 H       1  LIG1        0.1511
     42 F          25.5320   24.4270   11.4030 F       1  LIG1       -0.3612
     43 F          26.8280   24.8570   15.9000 F       1  LIG1       -0.3411
@<TRIPOS>BOND
     1     1     2    2
     2     2     3    1
     3     3     4    1
     4     3     5    1
     5     3     6    1
     6     6     7    1
     7     7     8    1
     8     7     9    1
     9     7     1    1
    10     6    10    1
    11    10    11    1
    12    10    12    1
    13    10    13    1
    14    13    14    1
    15    13    15    1
    16    13     6    1
    17     2    16    1
    18    16    17   ar
    19    17    18    1
    20    17    19   ar
    21    19    20    1
    22    19    21   ar
    23    21    22   ar
    24    22    23    1
    25    22    24   ar
    26    24    25    1
    27    24    16   ar
    28    21    26    1
    29    26    27    2
    30    26    28    2
    31    26    29    1
    32    29    30    1
    33    29    31    1
    34    29    32    1
    35     1    33    1
    36    33    34   ar
    37    34    35   ar
    38    35    36    1
    39    35    37   ar
    40    37    38   ar
    41    38    39    1
    42    38    40   ar
    43    40    41    1
    44    40    33   ar
    45    37    42    1
    46    34    43    1
