@<TRIPOS>MOLECULE
27
 27 27 0 0 0
SMALL
USER_CHARGES

@<TRIPOS>ATOM
      1 C1          0.5370    1.3210    1.1190 C.3     1  MAIN1      -0.1919
      2 C2          1.0060    1.5810   -0.3400 C.3     1  MAIN1       0.2048
      3 C3          0.0770    0.8460   -1.3310 C.3     1  MAIN1       0.0582
      4 C4         -0.0690   -0.6270   -0.9060 C.3     1  MAIN1       0.3355
      5 C5         -0.5200   -0.7090    0.5580 C.3     1  MAIN1      -0.0185
      6 C6         -0.7220   -2.1670    0.9830 C.3     1  MAIN1       0.0608
      7 O1          1.1170    2.5950    3.0690 O.2     1  MAIN1      -0.6845
      8 O2          1.0710    2.9830   -0.6440 O.3     1  MAIN1      -0.6824
      9 O3          0.5340    0.9770   -2.6860 O.3     1  MAIN1      -0.6944
     10 O4         -0.9900   -1.3320   -1.7180 O.3     1  MAIN1      -0.6946
     11 O5          0.4410   -0.0780    1.3890 O.3     1  MAIN1      -0.3218
     12 O6          0.3270   -2.9810    0.4680 O.3     1  MAIN1      -0.6487
     13 H12         1.4830    1.8830    2.1340 C.2     1  MAIN1       0.9355
     14 N1          2.8100    1.4990    2.0180 N.am    1  MAIN1      -1.1932
     15 H1         -0.4507    1.7870    1.2502 H       1  MAIN1       0.1513
     16 H2          2.0193    1.1671   -0.4487 H       1  MAIN1       0.0865
     17 H3         -0.9171    1.3132   -1.2727 H       1  MAIN1       0.1075
     18 H4          0.9148   -1.1099   -1.0005 H       1  MAIN1       0.0995
     19 H5         -1.4785   -0.1793    0.6614 H       1  MAIN1       0.1163
     20 H6         -1.6857   -2.5282    0.5947 H       1  MAIN1       0.1024
     21 H7         -0.7231   -2.2282    2.0813 H       1  MAIN1       0.0578
     22 H8          1.6464    3.4151   -0.0238 H       1  MAIN1       0.4457
     23 H9          0.6102    1.8978   -2.9069 H       1  MAIN1       0.4564
     24 H10        -0.7138   -1.2833   -2.6257 H       1  MAIN1       0.4480
     25 H11         0.1906   -3.8816    0.7380 H       1  MAIN1       0.4303
     26 H13         3.0982    0.9204    1.2550 H       1  MAIN1       0.5242
     27 H14         3.4790    1.8006    2.6973 H       1  MAIN1       0.5094
@<TRIPOS>BOND
     1     1    11    1
     2    13     7    2
     3     1     2    1
     4     2     8    1
     5     2     3    1
     6     3     9    1
     7     3     4    1
     8     4    10    1
     9     5     4    1
    10    11     5    1
    11     5     6    1
    12     6    12    1
    13     1    13    1
    14    13    14   am
    15     1    15    1
    16     2    16    1
    17     3    17    1
    18     4    18    1
    19     5    19    1
    20     6    20    1
    21     6    21    1
    22     8    22    1
    23     9    23    1
    24    10    24    1
    25    12    25    1
    26    14    26    1
    27    14    27    1
