@<TRIPOS>MOLECULE
30
 38 39 0 0 0
SMALL
USER_CHARGES

@<TRIPOS>ATOM
      1 C1          1.1410    1.4190    0.8670 C.3     1  MAIN1      -0.3062
      2 C2          1.3060    1.6930   -0.6430 C.3     1  MAIN1       0.3656
      3 C3          0.2480    0.9400   -1.4860 C.3     1  MAIN1      -0.0271
      4 C4          0.1550   -0.5310   -1.0480 C.3     1  MAIN1       0.3763
      5 C5         -0.0350   -0.5820    0.4690 C.3     1  MAIN1       0.0020
      6 C6         -0.3640   -1.9950    0.9660 C.3     1  MAIN1       0.0848
      7 C1         -0.0830    2.0780    1.4630 C.2     1  MAIN1       0.9585
      8 O2          1.3120    3.0980   -0.9020 O.3     1  MAIN1      -0.7810
      9 O3          0.5320    1.0460   -2.8830 O.3     1  MAIN1      -0.6919
     10 O4         -0.9170   -1.2070   -1.6890 O.3     1  MAIN1      -0.7128
     11 O5          1.0960    0.0030    1.1250 O.3     1  MAIN1      -0.3741
     12 O6          0.4730   -2.9570    0.3360 O.3     1  MAIN1      -0.6641
     13 N20        -0.7390    3.2310    0.9430 N.am    1  MAIN1      -1.0620
     14 O1         -0.5110    1.6390    2.5210 O.2     1  MAIN1      -0.6285
     15 C          -2.1439    3.4060    0.9674 C.ar    1  MAIN1       0.4546
     16 C          -2.6889    4.6090    1.4314 C.ar    1  MAIN1      -0.3496
     17 C          -4.0579    4.8330    1.3324 C.ar    1  MAIN1      -0.2338
     18 C          -4.8639    3.8550    0.7434 C.ar    1  MAIN1       0.3685
     19 C          -4.3229    2.6640    0.2474 C.ar    1  MAIN1      -0.3837
     20 C          -2.9529    2.4410    0.3554 C.ar    1  MAIN1      -0.2404
     21 O7         -6.2325    4.0758    0.6411 O.3     1  MAIN1      -0.6170
     22 H1          2.0243    1.8329    1.3755 H       1  MAIN1       0.2238
     23 H2          2.2904    1.3029   -0.9410 H       1  MAIN1       0.0773
     24 H3         -0.7293    1.4107   -1.3037 H       1  MAIN1       0.1431
     25 H4          1.0951   -1.0379   -1.3111 H       1  MAIN1       0.0640
     26 H5         -0.9060    0.0454    0.7093 H       1  MAIN1       0.1131
     27 H6         -1.4147   -2.2237    0.7344 H       1  MAIN1       0.0503
     28 H7         -0.2101   -2.0400    2.0542 H       1  MAIN1       0.0918
     29 H8          1.9742    3.5163   -0.3644 H       1  MAIN1       0.5005
     30 H9          0.5840    1.9627   -3.1269 H       1  MAIN1       0.4482
     31 H10        -0.7950   -1.1729   -2.6305 H       1  MAIN1       0.4394
     32 H11         0.2548   -3.8245    0.6559 H       1  MAIN1       0.4345
     33 H12        -0.1781    3.9541    0.5399 H       1  MAIN1       0.5962
     34 H13        -2.0451    5.3645    1.8671 H       1  MAIN1       0.2037
     35 H14        -4.4933    5.7525    1.7066 H       1  MAIN1       0.2094
     36 H15        -4.9637    1.9226   -0.2161 H       1  MAIN1       0.2054
     37 H16        -2.5160    1.5274   -0.0313 H       1  MAIN1       0.2262
     38 H17        -6.6433    3.3287    0.2223 H       1  MAIN1       0.4351
@<TRIPOS>BOND
     1     1    11    1
     2     7     1    1
     3     1     2    1
     4     2     8    1
     5     2     3    1
     6     3     9    1
     7     3     4    1
     8     4    10    1
     9     5     4    1
    10    11     5    1
    11     5     6    1
    12     6    12    1
    13    15    16   ar
    14     7    14    2
    15    13     7   am
    16    15    20   ar
    17    20    19   ar
    18    19    18   ar
    19    17    18   ar
    20    16    17   ar
    21    13    15    1
    22    18    21    1
    23     1    22    1
    24     2    23    1
    25     3    24    1
    26     4    25    1
    27     5    26    1
    28     6    27    1
    29     6    28    1
    30     8    29    1
    31     9    30    1
    32    10    31    1
    33    12    32    1
    34    13    33    1
    35    16    34    1
    36    17    35    1
    37    19    36    1
    38    20    37    1
    39    21    38    1
