@<TRIPOS>MOLECULE
32
 22 22 0 0 0
SMALL
USER_CHARGES

@<TRIPOS>ATOM
      1 C1          1.4500    1.2300    0.7930 C.3     1  MAIN1       0.3769
      2 C2          1.5640    1.4330   -0.7340 C.3     1  MAIN1       0.1712
      3 C3          0.3360    0.8660   -1.4650 C.3     1  MAIN1       0.1015
      4 C4          0.1090   -0.5840   -1.0120 C.3     1  MAIN1       0.2165
      5 C5         -0.0360   -0.6040    0.5160 C.3     1  MAIN1       0.2730
      6 C6         -0.4290   -2.0000    1.0130 C.3     1  MAIN1       0.0509
      7 F1          0.5030    2.0880    1.3480 F       1  MAIN1      -0.3569
      8 O3          0.4890    0.9760   -2.8810 O.3     1  MAIN1      -0.6828
      9 O4         -1.0350   -1.1700   -1.6200 O.3     1  MAIN1      -0.6787
     10 O5          1.1680   -0.1360    1.1360 O.3     1  MAIN1      -0.5074
     11 O6          0.3950   -2.9900    0.4080 O.3     1  MAIN1      -0.6681
     12 F2          1.7560    2.7780   -1.0400 F       1  MAIN1      -0.3625
     13 H1          2.4261    1.4848    1.2314 H       1  MAIN1       0.1745
     14 H2          2.4476    0.8783   -1.0828 H       1  MAIN1       0.1253
     15 H3         -0.5451    1.4574   -1.1754 H       1  MAIN1       0.1147
     16 H4          0.9900   -1.1790   -1.2944 H       1  MAIN1       0.1146
     17 H5         -0.8462    0.0880    0.7893 H       1  MAIN1       0.0649
     18 H6         -1.4801   -2.1949    0.7537 H       1  MAIN1       0.0785
     19 H7         -0.3065   -2.0441    2.1053 H       1  MAIN1       0.0701
     20 H8          0.6266    1.8864   -3.1148 H       1  MAIN1       0.4450
     21 H9         -0.9354   -1.1527   -2.5646 H       1  MAIN1       0.4418
     22 H10         0.1415   -3.8493    0.7240 H       1  MAIN1       0.4370
@<TRIPOS>BOND
     1     1    10    1
     2     1     2    1
     3     1     7    1
     4     2    12    1
     5     2     3    1
     6     3     8    1
     7     3     4    1
     8     4     9    1
     9     4     5    1
    10    10     5    1
    11     5     6    1
    12     6    11    1
    13     1    13    1
    14     2    14    1
    15     3    15    1
    16     4    16    1
    17     5    17    1
    18     6    18    1
    19     6    19    1
    20     8    20    1
    21     9    21    1
    22    11    22    1
