@<TRIPOS>MOLECULE
49
 34 34 0 0 0
SMALL
USER_CHARGES

@<TRIPOS>ATOM
      1 C1          0.3570    1.3180    1.1630 C.3     1  MAIN1      -0.2431
      2 C2          0.8900    1.5980   -0.2670 C.3     1  MAIN1       0.2020
      3 C3          0.0270    0.8370   -1.2980 C.3     1  MAIN1       0.0797
      4 C4         -0.0960   -0.6410   -0.8790 C.3     1  MAIN1       0.3493
      5 C5         -0.5830   -0.7440    0.5740 C.3     1  MAIN1       0.0146
      6 C6         -0.7460   -2.2090    0.9910 C.3     1  MAIN1       0.0589
      7 O1          0.7490    2.8590    2.9540 O.2     1  MAIN1      -0.6290
      8 O2          0.9180    3.0030   -0.5600 O.3     1  MAIN1      -0.6688
      9 O3          0.5360    0.9790   -2.6340 O.3     1  MAIN1      -0.6984
     10 O4         -0.9790   -1.3610   -1.7190 O.3     1  MAIN1      -0.7022
     11 O5          0.3260   -0.0810    1.4350 O.3     1  MAIN1      -0.3393
     12 O6          0.3260   -2.9910    0.4730 O.3     1  MAIN1      -0.6472
     13 H12         1.1840    1.9660    2.2260 C.2     1  MAIN1       0.8899
     14 N1          2.4770    1.4870    2.3800 N.am    1  MAIN1      -1.0481
     15 C7          3.3710    2.0040    3.4290 C.3     1  MAIN1       0.3183
     16 C8          4.8220    1.9530    2.9530 C.3     1  MAIN1       0.2827
     17 O7          5.7050    2.3630    3.9910 O.3     1  MAIN1      -0.7185
     18 H1         -0.6667    1.7156    1.2252 H       1  MAIN1       0.1697
     19 H2          1.9205    1.2185   -0.3299 H       1  MAIN1       0.0855
     20 H3         -0.9815    1.2760   -1.2828 H       1  MAIN1       0.0989
     21 H4          0.9008   -1.1008   -0.9500 H       1  MAIN1       0.0918
     22 H5         -1.5628   -0.2499    0.6504 H       1  MAIN1       0.1066
     23 H6         -1.6989   -2.5943    0.5992 H       1  MAIN1       0.1002
     24 H7         -0.7470   -2.2762    2.0889 H       1  MAIN1       0.0575
     25 H8          1.4531    3.4504    0.0850 H       1  MAIN1       0.4295
     26 H9          0.5966    1.9013   -2.8534 H       1  MAIN1       0.4550
     27 H10        -0.6807   -1.2995   -2.6189 H       1  MAIN1       0.4485
     28 H11         0.2142   -3.8965    0.7378 H       1  MAIN1       0.4296
     29 H13         2.8096    0.7733    1.7635 H       1  MAIN1       0.5244
     30 H14         3.2633    1.3891    4.3347 H       1  MAIN1       0.0501
     31 H15         3.0995    3.0450    3.6581 H       1  MAIN1       0.0405
     32 H16         4.9430    2.6239    2.0897 H       1  MAIN1      -0.0011
     33 H17         5.0685    0.9234    2.6546 H       1  MAIN1      -0.0115
     34 H18         6.6011    2.3251    3.6778 H       1  MAIN1       0.4240
@<TRIPOS>BOND
     1     1    11    1
     2    13     7    2
     3     1     2    1
     4     2     8    1
     5     2     3    1
     6     3     9    1
     7     3     4    1
     8     4    10    1
     9     5     4    1
    10    11     5    1
    11     5     6    1
    12     6    12    1
    13     1    13    1
    14    13    14   am
    15    14    15    1
    16    15    16    1
    17    16    17    1
    18     1    18    1
    19     2    19    1
    20     3    20    1
    21     4    21    1
    22     5    22    1
    23     6    23    1
    24     6    24    1
    25     8    25    1
    26     9    26    1
    27    10    27    1
    28    12    28    1
    29    14    29    1
    30    15    30    1
    31    15    31    1
    32    16    32    1
    33    16    33    1
    34    17    34    1
