@<TRIPOS>MOLECULE
59
 24 24 0 0 0
SMALL
USER_CHARGES

@<TRIPOS>ATOM
      1 C1          1.2530    1.4850    0.8030 C.3     1  MAIN1       0.3445
      2 C2          1.4320    1.6820   -0.7120 C.3     1  MAIN1       0.1552
      3 C3          0.3100    0.9690   -1.4930 C.3     1  MAIN1       0.0632
      4 C4          0.1570   -0.4770   -1.0030 C.3     1  MAIN1       0.3341
      5 C5         -0.0370   -0.4600    0.5190 C.3     1  MAIN1       0.0934
      6 C6         -0.3870   -1.8570    1.0510 C.3     1  MAIN1       0.0917
      7 H12         2.3310    2.0950    1.5050 O.3     1  MAIN1      -0.6570
      8 O2          1.4660    3.0790   -1.0100 O.3     1  MAIN1      -0.6803
      9 O3          0.5380    1.0330   -2.9010 O.3     1  MAIN1      -0.6962
     10 O4         -0.9310   -1.1420   -1.6370 O.3     1  MAIN1      -0.6998
     11 O5          1.1210    0.0970    1.1490 O.3     1  MAIN1      -0.4510
     12 O6          0.3980   -2.8550    0.4050 O.3     1  MAIN1      -0.6548
     13 H1          0.3237    1.9921    1.1017 H       1  MAIN1       0.0503
     14 H2          2.3933    1.2389   -1.0113 H       1  MAIN1       0.1036
     15 H3         -0.6333    1.4952   -1.2852 H       1  MAIN1       0.0932
     16 H4          1.0803   -1.0267   -1.2382 H       1  MAIN1       0.0889
     17 H5         -0.8882    0.1993    0.7443 H       1  MAIN1       0.0672
     18 H6         -1.4520   -2.0582    0.8631 H       1  MAIN1       0.0794
     19 H7         -0.1929   -1.8900    2.1332 H       1  MAIN1       0.0538
     20 H8          2.3934    3.0098    1.2564 H       1  MAIN1       0.4384
     21 H9          2.1650    3.4912   -0.5160 H       1  MAIN1       0.4451
     22 H10         0.6273    1.9408   -3.1664 H       1  MAIN1       0.4621
     23 H11        -0.7962   -1.1441   -2.5774 H       1  MAIN1       0.4473
     24 H13         0.1669   -3.7105    0.7474 H       1  MAIN1       0.4279
@<TRIPOS>BOND
     1     1    11    1
     2     1     7    1
     3     1     2    1
     4     2     8    1
     5     2     3    1
     6     3     9    1
     7     3     4    1
     8     4    10    1
     9     4     5    1
    10    11     5    1
    11     5     6    1
    12     6    12    1
    13     1    13    1
    14     2    14    1
    15     3    15    1
    16     4    16    1
    17     5    17    1
    18     6    18    1
    19     6    19    1
    20     7    20    1
    21     8    21    1
    22     9    22    1
    23    10    23    1
    24    12    24    1
