@<TRIPOS>MOLECULE
61
 25 25 0 0 0
SMALL
USER_CHARGES

@<TRIPOS>ATOM
      1 C1          0.9210    1.4630    0.9800 C.3     1  MAIN1      -0.2154
      2 C2          1.1990    1.6870   -0.5350 C.3     1  MAIN1       0.2520
      3 C3          0.1840    0.9410   -1.4340 C.3     1  MAIN1      -0.0309
      4 C4          0.0780   -0.5200   -0.9720 C.3     1  MAIN1       0.4098
      5 C5         -0.2570   -0.5420    0.5220 C.3     1  MAIN1       0.1044
      6 C6         -0.5520   -1.9790    0.9920 C.3     1  MAIN1       0.0978
      7 O2          1.2610    3.0810   -0.8350 O.3     1  MAIN1      -0.7810
      8 O3          0.5430    1.0310   -2.8170 O.3     1  MAIN1      -0.7240
      9 O4         -0.9160   -1.2420   -1.6910 O.3     1  MAIN1      -0.7272
     10 O5          0.7810    0.0680    1.2920 O.3     1  MAIN1      -0.4396
     11 O6          0.3540   -2.9140    0.3970 O.3     1  MAIN1      -0.6585
     12 C1         -0.2080    2.3110    1.5680 C.2     1  MAIN1       0.8386
     13 O1         -0.9040    3.1410    0.8850 O.co2   1  MAIN1      -1.0240
     14 O7         -0.3700    2.1680    2.8170 O.co2   1  MAIN1      -0.9038
     15 H1          1.8326    1.7978    1.4967 H       1  MAIN1       0.1416
     16 H2          2.1906    1.2624   -0.7506 H       1  MAIN1       0.0579
     17 H3         -0.8010    1.4147   -1.3099 H       1  MAIN1       0.1353
     18 H4          1.0496   -1.0104   -1.1319 H       1  MAIN1       0.0438
     19 H5         -1.1715    0.0511    0.6699 H       1  MAIN1       0.1084
     20 H6         -1.5807   -2.2455    0.7078 H       1  MAIN1       0.0433
     21 H7         -0.4498   -2.0269    2.0862 H       1  MAIN1       0.0560
     22 H8          1.8932    3.5002   -0.2631 H       1  MAIN1       0.5324
     23 H9          0.6001    1.9448   -3.0705 H       1  MAIN1       0.4440
     24 H10        -0.7086   -1.2287   -2.6180 H       1  MAIN1       0.4215
     25 H11         0.1508   -3.7902    0.7027 H       1  MAIN1       0.3954
@<TRIPOS>BOND
     1     1    10    1
     2     1     2    1
     3     2     7    1
     4     2     3    1
     5     3     8    1
     6     3     4    1
     7     4     9    1
     8     4     5    1
     9    10     5    1
    10     5     6    1
    11     6    11    1
    12     1    12    1
    13    12    13   ar
    14    12    14   ar
    15     1    15    1
    16     2    16    1
    17     3    17    1
    18     4    18    1
    19     5    19    1
    20     6    20    1
    21     6    21    1
    22     7    22    1
    23     8    23    1
    24     9    24    1
    25    11    25    1
