@<TRIPOS>MOLECULE
CPD_40-b
 64 67 0 0 0
SMALL
GASTEIGER

@<TRIPOS>ATOM
      1 C1          3.9022   -6.3617   15.2893 C.ar    4  NAPHTHALENE44   -0.0997
      2 C2          4.0735   -5.1479   15.9597 C.ar    4  NAPHTHALENE44   -0.1391
      3 C3          5.3433   -4.5703   16.0401 C.ar    4  NAPHTHALENE44   -0.1090
      4 C4          6.4383   -5.2071   15.4520 C.ar    4  NAPHTHALENE44   -0.1292
      5 ****        6.7453   -9.2904   10.3914 H       2  APM222      0.1237
      6 ****        5.2578  -10.5010    8.6524 H       2  APM222      0.0964
      7 ****        6.1562   -9.1086    8.0313 H       2  APM222      0.1375
      8 ****        2.8308  -10.4200    8.5071 H       2  APM222      0.1228
      9 ****        5.0716   -6.9064    7.6921 H       2  APM222      0.2207
     10 ****        3.0181   -5.6874    7.0783 H       2  APM222      0.1741
     11 ****        0.8606   -6.7498    7.2960 H       2  APM222      0.1225
     12 ****        3.9423   -9.9083   10.9624 H       2  APM222      0.2231
     13 ****       -1.6168   -9.3942    7.1067 H       2  APM222      0.2568
     14 ****       -0.5947   -8.0927    6.5408 H       2  APM222      0.2931
     15 ****        0.8488  -10.9452    9.0797 H       2  APM222      0.2951
     16 ****       -0.7869  -11.0334    8.4605 H       2  APM222      0.2573
     17 C           7.6270   -6.0669    8.0346 C.2     5  CO255       0.3101
     18 ****        7.7975   -7.7596    9.2261 H       3  PIP333      0.0932
     19 ****        9.6559   -6.2364    9.7945 H       3  PIP333      0.1076
     20 ****        8.7283   -6.7348   11.2352 H       3  PIP333      0.0505
     21 ****        8.3914   -4.0530    9.7369 H       3  PIP333      0.1143
     22 ****        9.2170   -4.2810   11.3018 H       3  PIP333      0.0606
     23 ****        6.8459   -3.4717   11.6177 H       3  PIP333      0.0757
     24 ****        7.1127   -5.0743   12.3515 H       3  PIP333      0.0682
     25 ****        4.9890   -5.0862   11.1642 H       3  PIP333      0.0935
     26 ****        5.7183   -4.4967    9.6785 H       3  PIP333      0.1219
     27 S           5.6642  -10.4141   12.6108 S.O2    1  TOS111      2.6206
     28 O1          6.9480  -11.0114   12.2952 O.2     1  TOS111     -0.8720
     29 O2          4.6748  -11.1850   13.3377 O.2     1  TOS111     -0.8890
     30 C5          7.3647   -7.0744   14.1930 C.ar    4  NAPHTHALENE44   -0.1277
     31 C6          7.1893   -8.2862   13.5191 C.ar    4  NAPHTHALENE44   -0.0493
     32 C7          5.9217   -8.8713   13.4523 C.ar    4  NAPHTHALENE44   -0.7195
     33 C8          4.8291   -8.2210   14.0280 C.ar    4  NAPHTHALENE44    0.0284
     34 C9          4.9985   -7.0030   14.6997 C.ar    4  NAPHTHALENE44   -0.0512
     35 C10         6.2711   -6.4274   14.7817 C.ar    4  NAPHTHALENE44    0.0129
     36 H1          2.9105   -6.7998   15.2329 H       4  NAPHTHALENE44    0.1311
     37 C           5.4576   -7.5369   10.4695 C.2     2  APM222      0.2629
     38 CA          5.7059   -9.0059   10.1759 C.3     2  APM222      0.0454
     39 CB          5.3476   -9.4048    8.7160 C.3     2  APM222     -0.1204
     40 CG          4.0581   -8.7195    8.2341 C.ar    2  APM222     -0.0582
     41 CD1         2.8240   -9.3772    8.2254 C.ar    2  APM222     -0.0844
     42 CD2         4.1202   -7.4033    7.7746 C.ar    2  APM222     -0.0204
     43 CE1         1.6427   -8.7145    7.8521 C.ar    2  APM222     -0.1647
     44 CE2         2.9633   -6.7169    7.4169 C.ar    2  APM222     -0.1048
     45 CZ          1.7293   -7.3595    7.5026 C.ar    2  APM222     -0.0997
     46 CF          0.2969   -9.4266    7.8201 C.3     2  APM222      0.3448
     47 O           4.4150   -7.3380   11.0739 O.2     2  APM222     -0.4248
     48 N           4.9247   -9.7981   11.1179 N.3     2  APM222     -0.8224
     49 NG1        -0.6976   -8.9352    7.1165 N.3     2  APM222     -0.3387
     50 NG2         0.1135  -10.5383    8.4926 N.3     2  APM222     -0.3347
     51 N1          6.2789   -6.4956   10.1238 N.am    3  PIP333     -0.2800
     52 C2          7.5502   -6.7073    9.4061 C.3     3  PIP333     -0.0468
     53 C3          8.6818   -6.1455   10.3040 C.3     3  PIP333     -0.1519
     54 C4          8.4080   -4.6613   10.6557 C.3     3  PIP333     -0.1551
     55 C5          7.0529   -4.5323   11.3955 C.3     3  PIP333     -0.1741
     56 C6          5.9035   -5.1372   10.5512 C.3     3  PIP333     -0.0089
     57 H2          3.2215   -4.6546   16.4175 H       4  NAPHTHALENE44    0.1313
     58 H3          5.4767   -3.6264   16.5603 H       4  NAPHTHALENE44    0.1332
     59 H4          7.4185   -4.7459   15.5204 H       4  NAPHTHALENE44    0.1383
     60 H5          8.3584   -6.6407   14.2524 H       4  NAPHTHALENE44    0.1425
     61 H6          8.0391   -8.7703   13.0503 H       4  NAPHTHALENE44    0.1526
     62 H8          3.8462   -8.6725   13.9481 H       4  NAPHTHALENE44    0.1390
     63 O           6.7910   -5.1929    7.6878 O.co2   5  CO255      -0.5766
     64 O           8.5520   -6.4421    7.2629 O.co2   5  CO255      -0.5497
@<TRIPOS>BOND
     1    27    32    1
     2    30    31   ar
     3    30    35   ar
     4    30    60    1
     5    35     4   ar
     6    35    34   ar
     7    34     1   ar
     8    38     5    1
     9    39     6    1
    10    39     7    1
    11    41     8    1
    12    42     9    1
    13    44    10    1
    14    45    11    1
    15    48    12    1
    16    49    13    1
    17    49    14    1
    18    50    15    1
    19    50    16    1
    20    17    63   ar
    21    52    18    1
    22    53    19    1
    23    53    20    1
    24    54    21    1
    25    54    22    1
    26    55    23    1
    27    55    24    1
    28    56    25    1
    29    56    26    1
    30    34    33   ar
    31    27    29    2
    32    27    28    2
    33    33    32   ar
    34    33    62    1
    35    32    31   ar
    36    31    61    1
    37     1     2   ar
    38     1    36    1
    39    37    47    2
    40    37    38    1
    41    38    48    1
    42    38    39    1
    43    39    40    1
    44    40    42   ar
    45    40    41   ar
    46    41    43   ar
    47    43    46    1
    48    43    45   ar
    49    45    44   ar
    50    44    42   ar
    51    46    50    1
    52    46    49    1
    53    56    51    1
    54    51    52    1
    55    52    53    1
    56    53    54    1
    57    54    55    1
    58    55    56    1
    59    37    51   am
    60    48    27    1
    61     2     3   ar
    62     2    57    1
    63     3     4   ar
    64     3    58    1
    65     4    59    1
    66    17    64   ar
    67    52    17    1
