@<TRIPOS>MOLECULE
CPD_19-b
 63 66 0 0 0
SMALL
GASTEIGER

@<TRIPOS>ATOM
      1 C1          3.8979   -6.3618   15.2931 C.ar    4  NAPHTHALENE44   -0.1016
      2 C2          4.0694   -5.1468   15.9627 C.ar    4  NAPHTHALENE44   -0.1287
      3 C3          5.3389   -4.5699   16.0428 C.ar    4  NAPHTHALENE44   -0.0965
      4 C4          6.4340   -5.2079   15.4544 C.ar    4  NAPHTHALENE44   -0.1358
      5 ****        6.7635   -9.3096   10.4041 H       2  APM222      0.1256
      6 ****        5.2569  -10.4949    8.6517 H       2  APM222      0.1169
      7 ****        6.1721   -9.1128    8.0408 H       2  APM222      0.1096
      8 ****        2.8047  -10.3941    8.5086 H       2  APM222      0.1339
      9 ****        5.1151   -6.8602    7.7431 H       2  APM222      0.1632
     10 ****        3.0653   -5.6584    7.0764 H       2  APM222      0.1655
     11 ****        0.8699   -6.7622    7.2332 H       2  APM222      0.1355
     12 ****        3.9522   -9.9202   10.9745 H       2  APM222      0.2280
     13 ****       -1.5688   -9.3629    7.0724 H       2  APM222      0.2732
     14 ****       -0.5153   -8.0499    6.5300 H       2  APM222      0.2963
     15 ****        0.9190  -10.8736    9.0818 H       2  APM222      0.2971
     16 ****       -0.7396  -10.9928    8.4778 H       2  APM222      0.2735
     17 ****        7.6851   -6.1752    8.5389 H       3  PIP333      0.0959
     18 ****        7.8267   -7.8275    9.1446 H       3  PIP333      0.1060
     19 ****        9.6666   -6.4673   10.0953 H       3  PIP333      0.1106
     20 ****        8.5333   -6.9001   11.3982 H       3  PIP333      0.0990
     21 C           9.2329   -3.9647   10.3549 C.2     5  CO55        0.2533
     22 O           9.0878   -2.7675   10.5379 O.2     5  CO55       -0.3556
     23 ****        6.8971   -3.4481   11.3908 H       3  PIP333      0.1387
     24 ****        6.9806   -4.9570   12.3308 H       3  PIP333      0.0980
     25 ****        4.9683   -5.0303   10.9012 H       3  PIP333      0.1339
     26 ****        5.9203   -4.5966    9.4677 H       3  PIP333      0.0818
     27 S           5.6616  -10.4222   12.6266 S.O2    1  TOS111      2.6236
     28 O1          6.9460  -11.0215   12.3177 O.2     1  TOS111     -0.8659
     29 O2          4.6682  -11.1910   13.3501 O.2     1  TOS111     -0.8634
     30 C5          7.3595   -7.0772   14.2002 C.ar    4  NAPHTHALENE44   -0.1314
     31 C6          7.1865   -8.2996   13.5434 C.ar    4  NAPHTHALENE44   -0.0668
     32 C7          5.9176   -8.8793   13.4685 C.ar    4  NAPHTHALENE44   -0.7319
     33 C8          4.8237   -8.2234   14.0368 C.ar    4  NAPHTHALENE44    0.0314
     34 C9          4.9924   -7.0049   14.7052 C.ar    4  NAPHTHALENE44   -0.0547
     35 C10         6.2675   -6.4280   14.7865 C.ar    4  NAPHTHALENE44    0.0076
     36 H1          2.9055   -6.7989   15.2368 H       4  NAPHTHALENE44    0.1369
     37 C           5.4780   -7.5586   10.4819 C.2     2  APM222      0.2723
     38 CA          5.7218   -9.0267   10.1945 C.3     2  APM222      0.0436
     39 CB          5.3619   -9.4012    8.7269 C.3     2  APM222     -0.1227
     40 CG          4.0839   -8.6930    8.2439 C.ar    2  APM222     -0.0561
     41 CD1         2.8461   -9.3484    8.2267 C.ar    2  APM222     -0.0750
     42 CD2         4.1586   -7.3689    7.7979 C.ar    2  APM222     -0.0565
     43 CE1         1.6769   -8.6792    7.8392 C.ar    2  APM222     -0.1473
     44 CE2         3.0014   -6.6879    7.4159 C.ar    2  APM222     -0.1051
     45 CZ          1.7625   -7.3303    7.4724 C.ar    2  APM222     -0.0848
     46 CF          0.3350   -9.3917    7.8097 C.3     2  APM222      0.3339
     47 O           4.4456   -7.3277   11.0919 O.2     2  APM222     -0.3657
     48 N           4.9340   -9.8130   11.1350 N.3     2  APM222     -0.8279
     49 NG1        -0.6471   -8.9006    7.0952 N.3     2  APM222     -0.3272
     50 NG2         0.1622  -10.4927    8.4971 N.3     2  APM222     -0.3247
     51 N1          6.3116   -6.5465   10.1014 N.am    3  PIP333     -0.3406
     52 C2          7.5987   -6.7977    9.4438 C.3     3  PIP333     -0.0450
     53 C3          8.6433   -6.3166   10.4714 C.3     3  PIP333     -0.0306
     54 N4          8.3363   -4.9130   10.7278 N.am    3  PIP333     -0.3598
     55 C5          7.0497   -4.5374   11.3150 C.3     3  PIP333     -0.0309
     56 C6          5.9492   -5.1577   10.4152 C.3     3  PIP333     -0.0340
     57 ****       10.1621   -4.2367    9.8527 H       5  CO55        0.1192
     58 H2          3.2175   -4.6530   16.4198 H       4  NAPHTHALENE44    0.1421
     59 H3          5.4733   -3.6260   16.5627 H       4  NAPHTHALENE44    0.1441
     60 H4          7.4144   -4.7463   15.5224 H       4  NAPHTHALENE44    0.1436
     61 H5          8.3518   -6.6386   14.2494 H       4  NAPHTHALENE44    0.1432
     62 H6          8.0394   -8.7964   13.0943 H       4  NAPHTHALENE44    0.1464
     63 H8          3.8400   -8.6730   13.9532 H       4  NAPHTHALENE44    0.1426
@<TRIPOS>BOND
     1    27    32    1
     2    30    31   ar
     3    30    35   ar
     4    30    61    1
     5    35     4   ar
     6    35    34   ar
     7    34     1   ar
     8    38     5    1
     9    39     6    1
    10    39     7    1
    11    41     8    1
    12    42     9    1
    13    44    10    1
    14    45    11    1
    15    48    12    1
    16    49    13    1
    17    49    14    1
    18    50    15    1
    19    50    16    1
    20    52    17    1
    21    52    18    1
    22    53    19    1
    23    53    20    1
    24    21    22    2
    25    54    21   am
    26    55    23    1
    27    55    24    1
    28    56    25    1
    29    56    26    1
    30    34    33   ar
    31    27    29    2
    32    27    28    2
    33    33    32   ar
    34    33    63    1
    35    32    31   ar
    36    31    62    1
    37     1     2   ar
    38     1    36    1
    39    37    47    2
    40    37    38    1
    41    38    48    1
    42    38    39    1
    43    39    40    1
    44    40    42   ar
    45    40    41   ar
    46    41    43   ar
    47    43    46    1
    48    43    45   ar
    49    45    44   ar
    50    44    42   ar
    51    46    50    1
    52    46    49    1
    53    56    51    1
    54    51    52    1
    55    52    53    1
    56    53    54    1
    57    54    55    1
    58    55    56    1
    59    37    51   am
    60    48    27    1
    61    21    57    1
    62     2     3   ar
    63     2    58    1
    64     3     4   ar
    65     3    59    1
    66     4    60    1
