@<TRIPOS>MOLECULE
CPD_07-b
 74 77 0 0 0
SMALL
GASTEIGER

@<TRIPOS>ATOM
      1 C1          6.7865   -9.3194   14.9233 C.3     4  CYCLOHEXANE_BOAT44   -0.0623
      2 C2          8.1557   -8.6029   15.1104 C.3     4  CYCLOHEXANE_BOAT44   -0.1468
      3 C3          8.4282   -8.7256   16.6400 C.3     4  CYCLOHEXANE_BOAT44   -0.1632
      4 C4          7.1780   -9.5048   17.1484 C.3     4  CYCLOHEXANE_BOAT44   -0.1133
      5 C5          7.3650  -10.9807   16.7105 C.3     4  CYCLOHEXANE_BOAT44   -0.2014
      6 C6          7.0951  -10.7690   15.2526 C.2     4  CYCLOHEXANE_BOAT44    0.2165
      7 ****        6.7734   -9.3147   10.3800 H       2  APM222      0.1324
      8 ****        5.2680  -10.4665    8.6258 H       2  APM222      0.1179
      9 ****        6.1854   -9.0781    8.0342 H       2  APM222      0.1121
     10 ****        2.8446  -10.3602    8.4771 H       2  APM222      0.1341
     11 ****        5.1336   -6.8131    7.7634 H       2  APM222      0.1650
     12 ****        3.0913   -5.6500    7.0154 H       2  APM222      0.1641
     13 ****        0.9055   -6.7175    7.2146 H       2  APM222      0.1347
     14 ****        3.9579   -9.9428   10.9575 H       2  APM222      0.2353
     15 ****       -1.6007   -9.3956    7.0910 H       2  APM222      0.2735
     16 ****       -0.5926   -8.0895    6.5077 H       2  APM222      0.2898
     17 ****        0.8501  -10.8852    9.0658 H       2  APM222      0.2920
     18 ****       -0.7784  -10.9845    8.4337 H       2  APM222      0.2739
     19 ****        7.5901   -6.2224    8.4687 H       3  PIP333      0.0828
     20 ****        7.8453   -7.8222    9.1595 H       3  PIP333      0.1006
     21 ****        9.6973   -6.3357    9.8152 H       3  PIP333      0.0997
     22 ****        8.7595   -6.8386   11.2527 H       3  PIP333      0.0926
     23 ****        8.4482   -4.1643    9.7413 H       3  PIP333      0.0883
     24 C25         9.5777   -4.1849   11.5901 C.3     3  PIP333     -0.2069
     25 ****        6.8564   -3.5509   11.5816 H       3  PIP333      0.0981
     26 ****        7.0604   -5.1734   12.3085 H       3  PIP333      0.0943
     27 ****        4.9855   -5.0676   10.9390 H       3  PIP333      0.1266
     28 ****        5.9161   -4.5929    9.5053 H       3  PIP333      0.0763
     29 S           5.6760  -10.4409   12.5584 S.O2    1  TOS111      2.5806
     30 O1          6.9169  -11.0670   12.1473 O.2     1  TOS111     -0.8479
     31 O2          4.7011  -11.2319   13.2776 O.2     1  TOS111     -0.8652
     32 C1          6.0741   -8.9845   13.5690 C.3     4  CYCLOHEXANE_BOAT44   -0.6982
     33 C8          5.7230   -7.4531   16.5015 C.3     4  CYCLOHEXANE_BOAT44   -0.1926
     34 H3          8.1181   -7.5446   14.8071 H       4  CYCLOHEXANE_BOAT44    0.0908
     35 H4          8.9357   -9.0935   14.5068 H       4  CYCLOHEXANE_BOAT44    0.0972
     36 H5          8.5089   -7.7443   17.1376 H       4  CYCLOHEXANE_BOAT44    0.0929
     37 H6          9.3711   -9.2587   16.8508 H       4  CYCLOHEXANE_BOAT44    0.0951
     38 C7          6.0284   -8.9676   16.2386 C.3     4  CYCLOHEXANE_BOAT44   -0.0430
     39 C           5.5018   -7.5688   10.4956 C.2     2  APM222      0.2639
     40 CA          5.7282   -9.0292   10.1882 C.3     2  APM222      0.0345
     41 CB          5.3699   -9.3736    8.7130 C.3     2  APM222     -0.1213
     42 CG          4.0931   -8.6573    8.2299 C.ar    2  APM222     -0.0593
     43 CD1         2.8544   -9.3121    8.2006 C.ar    2  APM222     -0.0726
     44 CD2         4.1789   -7.3321    7.7929 C.ar    2  APM222     -0.0544
     45 CE1         1.6687   -8.6624    7.8179 C.ar    2  APM222     -0.1412
     46 CE2         3.0209   -6.6702    7.3847 C.ar    2  APM222     -0.1110
     47 CZ          1.7813   -7.3110    7.4523 C.ar    2  APM222     -0.0813
     48 CF          0.3225   -9.3834    7.7923 C.3     2  APM222      0.3438
     49 O           4.4785   -7.3449   11.1245 O.2     2  APM222     -0.3754
     50 N           4.9355   -9.8028   11.1389 N.3     2  APM222     -0.8448
     51 NG1        -0.6863   -8.9233    7.0891 N.3     2  APM222     -0.3301
     52 NG2         0.1227  -10.4882    8.4705 N.3     2  APM222     -0.3262
     53 N1          6.3307   -6.5549   10.1136 N.am    3  PIP333     -0.3367
     54 C2          7.5998   -6.7856    9.4161 C.3     3  PIP333     -0.0227
     55 C3          8.7260   -6.2388   10.3282 C.3     3  PIP333     -0.1757
     56 C4          8.4562   -4.7496   10.6783 C.3     3  PIP333     -0.1074
     57 C5          7.0682   -4.6103   11.3609 C.3     3  PIP333     -0.1752
     58 C6          5.9618   -5.1769   10.4393 C.3     3  PIP333     -0.0174
     59 ****       10.5553   -4.2717   11.0904 H       3  PIP333      0.0818
     60 ****        9.6180   -4.7373   12.5417 H       3  PIP333      0.0776
     61 ****        9.3917   -3.1212   11.8074 H       3  PIP333      0.0823
     62 H8          7.0124   -9.4057   18.2354 H       4  CYCLOHEXANE_BOAT44    0.1158
     63 H9          6.6220  -11.6544   17.1620 H       4  CYCLOHEXANE_BOAT44    0.1288
     64 H10         8.3718  -11.3905   16.8857 H       4  CYCLOHEXANE_BOAT44    0.1298
     65 ****        7.1069  -11.7082   14.4661 O.2     4  CYCLOHEXANE_BOAT44   -0.2726
     66 C17         4.6748   -9.7333   16.4031 C.3     4  CYCLOHEXANE_BOAT44   -0.2081
     67 ****        6.7068   -8.3335   12.9470 H       4  CYCLOHEXANE_BOAT44    0.1259
     68 ****        5.1304   -8.4498   13.7507 H       4  CYCLOHEXANE_BOAT44    0.1485
     69 ****        5.3638   -7.3432   17.5370 H       4  CYCLOHEXANE_BOAT44    0.0811
     70 ****        4.9321   -7.0854   15.8311 H       4  CYCLOHEXANE_BOAT44    0.0724
     71 ****        6.5717   -6.7701   16.3843 H       4  CYCLOHEXANE_BOAT44    0.0781
     72 ****        4.7007  -10.7819   16.0804 H       4  CYCLOHEXANE_BOAT44    0.0951
     73 ****        3.8817   -9.2495   15.8144 H       4  CYCLOHEXANE_BOAT44    0.0755
     74 ****        4.3746   -9.7123   17.4615 H       4  CYCLOHEXANE_BOAT44    0.0819
@<TRIPOS>BOND
     1    29    32    1
     2     1    38    1
     3     1     2    1
     4     1     6    1
     5     1    32    1
     6    32    68    1
     7    32    67    1
     8    40     7    1
     9    41     8    1
    10    41     9    1
    11    43    10    1
    12    44    11    1
    13    46    12    1
    14    47    13    1
    15    50    14    1
    16    51    15    1
    17    51    16    1
    18    52    17    1
    19    52    18    1
    20    54    19    1
    21    54    20    1
    22    55    21    1
    23    55    22    1
    24    56    23    1
    25    56    24    1
    26    57    25    1
    27    57    26    1
    28    58    27    1
    29    58    28    1
    30    29    31    2
    31    29    30    2
    32     6    65    2
    33     6     5    1
    34     5     4    1
    35     5    63    1
    36     5    64    1
    37     4     3    1
    38     4    38    1
    39    39    49    2
    40    39    40    1
    41    40    50    1
    42    40    41    1
    43    41    42    1
    44    42    44   ar
    45    42    43   ar
    46    43    45   ar
    47    45    48    1
    48    45    47   ar
    49    47    46   ar
    50    46    44   ar
    51    48    52    1
    52    48    51    1
    53    58    53    1
    54    53    54    1
    55    54    55    1
    56    55    56    1
    57    56    57    1
    58    57    58    1
    59    39    53   am
    60    50    29    1
    61    24    59    1
    62    24    60    1
    63    24    61    1
    64     4    62    1
    65    38    66    1
    66    38    33    1
    67    33    71    1
    68    33    70    1
    69    33    69    1
    70    66    74    1
    71    66    73    1
    72    66    72    1
    73     3     2    1
    74     3    36    1
    75     3    37    1
    76     2    34    1
    77     2    35    1
