@<TRIPOS>MOLECULE
CPD_39-b
 90 92 0 0 0
SMALL
GASTEIGER

@<TRIPOS>ATOM
      1 C1          3.6351   -8.3522   13.9872 C.3     1  TOS111     -0.0705
      2 ****        4.8118   -6.1642   14.9678 H       1  TOS111      0.1407
      3 C3          7.2470   -5.3944   15.8600 C.3     1  TOS111     -0.0755
      4 C4          8.6485   -9.7685   13.7895 C.3     1  TOS111     -0.0935
      5 ****        8.8809   -7.1711   14.5116 H       1  TOS111      0.1415
      6 ****        3.4070   -9.1569   13.2783 H       1  TOS111      0.0836
      7 C7          8.0730   -4.3041   15.1271 C.3     1  TOS111     -0.2059
      8 ****        6.7511   -9.3071   10.4449 H       2  APM222      0.1223
      9 ****        5.3298  -10.4662    8.6276 H       2  APM222      0.1183
     10 ****        6.2341   -9.0404    8.0746 H       2  APM222      0.1101
     11 ****        2.9277  -10.3989    8.4066 H       2  APM222      0.1344
     12 ****        5.1325   -6.8093    7.7881 H       2  APM222      0.1612
     13 ****        3.0359   -5.5646    7.3816 H       2  APM222      0.1636
     14 ****        0.8893   -6.6629    7.5997 H       2  APM222      0.1349
     15 ****        3.9029   -9.8250   10.9708 H       2  APM222      0.2321
     16 ****       -1.5672   -9.3429    7.1804 H       2  APM222      0.2706
     17 ****       -0.5771   -7.9688    6.7213 H       2  APM222      0.2933
     18 ****        0.9466  -11.0246    8.9499 H       2  APM222      0.2945
     19 ****       -0.6973  -11.0743    8.3388 H       2  APM222      0.2710
     20 ****        7.7477   -6.2097    8.7656 H       3  PIP333      0.0917
     21 ****        7.9990   -7.7449    9.5875 H       3  PIP333      0.0970
     22 ****       10.4257   -8.0279   10.6821 H       4  AMIDE44     0.2260
     23 ****        8.6168   -6.5700   11.6950 H       3  PIP333      0.1138
     24 ****        8.3111   -3.9963   10.0181 H       3  PIP333      0.1077
     25 ****        8.9756   -4.1232   11.6760 H       3  PIP333      0.1040
     26 ****        6.5389   -3.4464   11.7053 H       3  PIP333      0.1016
     27 ****        6.7527   -5.0652   12.4515 H       3  PIP333      0.0963
     28 ****        4.8305   -5.0848   10.9482 H       3  PIP333      0.1233
     29 ****        5.8281   -4.5872    9.5660 H       3  PIP333      0.0772
     30 S           5.6423  -10.4485   12.6173 S.O2    1  TOS111      2.5858
     31 O1          6.7566  -11.1985   12.0805 O.2     1  TOS111     -0.8717
     32 O2          4.6431  -11.1857   13.3658 O.2     1  TOS111     -0.8589
     33 C1          6.1496   -8.9897   13.5906 C.ar    1  TOS111     -0.6853
     34 C2          5.1643   -8.0860   14.0510 C.ar    1  TOS111      0.0449
     35 C3          5.5509   -6.8938   14.6741 C.ar    1  TOS111     -0.1559
     36 C4          6.8843   -6.6100   14.9709 C.ar    1  TOS111     -0.0025
     37 C5          7.8465   -7.4841   14.4661 C.ar    1  TOS111     -0.1566
     38 C6          7.4958   -8.7357   13.9317 C.ar    1  TOS111      0.0329
     39 C39         7.9851   -5.8662   17.1417 C.3     1  TOS111     -0.2064
     40 C           5.4486   -7.5478   10.4374 C.2     2  APM222      0.2712
     41 CA          5.7227   -9.0115   10.2045 C.3     2  APM222      0.0445
     42 CB          5.4102   -9.3720    8.7255 C.3     2  APM222     -0.1233
     43 CG          4.1256   -8.6639    8.2600 C.ar    2  APM222     -0.0552
     44 CD1         2.9009   -9.3356    8.2153 C.ar    2  APM222     -0.0733
     45 CD2         4.1805   -7.3193    7.8803 C.ar    2  APM222     -0.0499
     46 CE1         1.6985   -8.6647    7.9275 C.ar    2  APM222     -0.1433
     47 CE2         3.0002   -6.6212    7.6304 C.ar    2  APM222     -0.1073
     48 CZ          1.7726   -7.2792    7.7085 C.ar    2  APM222     -0.0831
     49 CF          0.3647   -9.3963    7.8511 C.3     2  APM222      0.3434
     50 O           4.3042   -7.3445   10.8013 O.2     2  APM222     -0.3821
     51 N           4.8841   -9.7409   11.1480 N.3     2  APM222     -0.8186
     52 NG1        -0.6554   -8.8653    7.2147 N.3     2  APM222     -0.3315
     53 NG2         0.1988  -10.5720    8.4135 N.3     2  APM222     -0.3285
     54 N1          6.3143   -6.5137   10.2494 N.am    3  PIP333     -0.3321
     55 C2          7.6768   -6.7098    9.7434 C.3     3  PIP333     -0.0052
     56 C3          8.6679   -6.0397   10.7274 C.3     3  PIP333     -0.1612
     57 C4          8.2608   -4.5651   10.9621 C.3     3  PIP333     -0.1431
     58 C5          6.8183   -4.4959   11.5125 C.3     3  PIP333     -0.1850
     59 C6          5.8409   -5.1503   10.5120 C.3     3  PIP333     -0.0151
     60 ****        6.3212   -4.9027   16.2070 H       1  TOS111      0.0952
     61 C64         2.7051   -7.1704   13.5611 C.3     1  TOS111     -0.2060
     62 C65         3.2121   -8.8104   15.4091 C.3     1  TOS111     -0.2066
     63 ****        8.2868  -10.7858   13.6160 H       1  TOS111      0.1203
     64 C67         9.4908   -9.9330   15.0820 C.3     1  TOS111     -0.2071
     65 C68         9.5902   -9.3768   12.6361 C.3     1  TOS111     -0.2042
     66 ****        9.0178   -4.7098   14.7380 H       1  TOS111      0.0773
     67 ****        8.3072   -3.4790   15.8184 H       1  TOS111      0.0864
     68 ****        7.4942   -3.8788   14.2975 H       1  TOS111      0.0732
     69 ****        7.3603   -6.5822   17.6984 H       1  TOS111      0.0823
     70 ****        8.1969   -5.0087   17.8007 H       1  TOS111      0.0850
     71 ****        8.9389   -6.3515   16.8884 H       1  TOS111      0.0776
     72 ****        2.7039   -6.3278   14.2642 H       1  TOS111      0.0746
     73 ****        1.6655   -7.5313   13.5080 H       1  TOS111      0.0679
     74 ****        2.9583   -6.7731   12.5748 H       1  TOS111      0.0949
     75 ****        3.8179   -9.6706   15.7327 H       1  TOS111      0.0935
     76 ****        2.1507   -9.1018   15.4297 H       1  TOS111      0.0800
     77 ****        3.3592   -7.9913   16.1310 H       1  TOS111      0.0773
     78 ****        9.9918   -9.0044   15.3873 H       1  TOS111      0.0764
     79 ****       10.2747  -10.6919   14.9212 H       1  TOS111      0.0866
     80 ****        8.8371  -10.2686   15.8995 H       1  TOS111      0.0836
     81 ****        8.9721   -9.2408   11.7366 H       1  TOS111      0.0605
     82 ****       10.3687  -10.1294   12.4280 H       1  TOS111      0.0939
     83 ****       10.0919   -8.4414   12.9249 H       1  TOS111      0.0726
     84 C          10.0759   -6.0726   10.1727 C.2     4  AMIDE44     0.3070
     85 O          10.5305   -5.0655    9.6549 O.2     4  AMIDE44    -0.3547
     86 N          10.7891   -7.2141   10.2678 N.am    4  AMIDE44    -0.3900
     87 C94        12.1402   -7.3311    9.7517 C.3     4  AMIDE44    -0.0765
     88 ****       12.1603   -8.1232    8.9867 H       4  AMIDE44     0.0698
     89 ****       12.8134   -7.6123   10.5766 H       4  AMIDE44     0.0753
     90 ****       12.4994   -6.3959    9.3037 H       4  AMIDE44     0.1209
@<TRIPOS>BOND
     1    34     1    1
     2    35     2    1
     3    36     3    1
     4    38     4    1
     5    37     5    1
     6     1     6    1
     7     3     7    1
     8    41     8    1
     9    42     9    1
    10    42    10    1
    11    44    11    1
    12    45    12    1
    13    47    13    1
    14    48    14    1
    15    51    15    1
    16    52    16    1
    17    52    17    1
    18    53    18    1
    19    53    19    1
    20    55    20    1
    21    55    21    1
    22    56    84    1
    23    56    23    1
    24    57    24    1
    25    57    25    1
    26    58    26    1
    27    58    27    1
    28    59    28    1
    29    59    29    1
    30    30    33    1
    31    30    32    2
    32    30    31    2
    33    33    38   ar
    34    33    34   ar
    35    34    35   ar
    36    35    36   ar
    37     3    39    1
    38    36    37   ar
    39    37    38   ar
    40    40    50    2
    41    40    41    1
    42    41    51    1
    43    41    42    1
    44    42    43    1
    45    43    45   ar
    46    43    44   ar
    47    44    46   ar
    48    46    49    1
    49    46    48   ar
    50    48    47   ar
    51    47    45   ar
    52    49    53    1
    53    49    52    1
    54    59    54    1
    55    54    55    1
    56    55    56    1
    57    56    57    1
    58    57    58    1
    59    58    59    1
    60    40    54   am
    61    51    30    1
    62     3    60    1
    63     1    61    1
    64     1    62    1
    65     4    63    1
    66     4    64    1
    67     4    65    1
    68     7    66    1
    69     7    67    1
    70     7    68    1
    71    39    69    1
    72    39    70    1
    73    39    71    1
    74    61    72    1
    75    61    73    1
    76    61    74    1
    77    62    75    1
    78    62    76    1
    79    62    77    1
    80    64    78    1
    81    64    79    1
    82    64    80    1
    83    65    81    1
    84    65    82    1
    85    65    83    1
    86    84    85    2
    87    84    86   am
    88    86    22    1
    89    86    87    1
    90    87    88    1
    91    87    89    1
    92    87    90    1
