@<TRIPOS>MOLECULE
11_13
 40 42 0 0 0
SMALL
USER_CHARGES
****
From 3DB ct
@<TRIPOS>ATOM
      1 C          25.4820   21.5040   17.2330 C.ar    1  LIG1       -0.6297
      2 C          26.4390   22.0720   16.4020 C.ar    1  LIG1        0.4626
      3 N          27.7410   22.0450   16.8910 N.ar    1  LIG1       -0.5137
      4 C          27.7720   21.4420   18.0610 C.ar    1  LIG1        0.0629
      5 S          26.2560   20.8870   18.6420 S.2     1  LIG1        0.2324
      6 C          29.0170   21.2290   18.8670 C.3     1  LIG1        0.0795
      7 H          29.8660   21.1160   18.1830 H       1  LIG1        0.0398
      8 H          28.9530   20.2980   19.4430 H       1  LIG1        0.0360
      9 C          29.2850   22.3950   19.8060 C.3     1  LIG1       -0.0401
     10 H          30.2130   22.2290   20.3630 H       1  LIG1        0.0143
     11 H          28.4730   22.5180   20.5300 H       1  LIG1        0.0132
     12 H          29.3850   23.3340   19.2510 H       1  LIG1        0.0352
     13 C          26.1680   22.6900   15.1100 C.ar    1  LIG1       -0.1338
     14 C          25.6670   21.9450   14.0310 C.ar    1  LIG1       -0.0198
     15 H          25.4720   20.8790   14.1300 H       1  LIG1        0.1187
     16 C          25.4200   22.5610   12.8010 C.ar    1  LIG1       -0.4019
     17 H          25.0290   21.9870   11.9660 H       1  LIG1        0.2283
     18 C          25.6820   23.9180   12.6480 C.ar    1  LIG1        0.5632
     19 C          26.1910   24.6700   13.6990 C.ar    1  LIG1       -0.3570
     20 H          26.3960   25.7280   13.5610 H       1  LIG1        0.2171
     21 C          26.4380   24.0550   14.9290 C.ar    1  LIG1       -0.0811
     22 H          26.8390   24.6490   15.7490 H       1  LIG1        0.1993
     23 F          25.4470   24.5060   11.4680 F       1  LIG1       -0.3655
     24 C          24.0250   21.4040   17.1150 C.ar    1  LIG1        0.4334
     25 C          23.3100   20.4340   17.8340 C.ar    1  LIG1       -0.1891
     26 H          23.8280   19.7380   18.4930 H       1  LIG1        0.1679
     27 C          21.9210   20.3340   17.7070 C.ar    1  LIG1       -0.0875
     28 H          21.3860   19.5710   18.2690 H       1  LIG1        0.1985
     29 C          21.2400   21.2130   16.8620 C.ar    1  LIG1       -0.5035
     30 C          21.9370   22.1780   16.1320 C.ar    1  LIG1       -0.0493
     31 H          21.4170   22.8610   15.4640 H       1  LIG1        0.2036
     32 C          23.3260   22.2720   16.2630 C.ar    1  LIG1       -0.2765
     33 H          23.8570   23.0340   15.6930 H       1  LIG1        0.1933
     34 S          19.4760   21.0690   16.6830 S.O2    1  LIG1        2.2185
     35 O          18.9380   22.4100   16.4780 O.2     1  LIG1       -0.9762
     36 O          18.9710   20.2830   17.8050 O.2     1  LIG1       -0.9760
     37 C          19.2780   20.1310   15.1920 C.3     1  LIG1       -0.7561
     38 H          18.2090   19.9970   15.0160 H       1  LIG1        0.2446
     39 H          19.7590   19.1600   15.3160 H       1  LIG1        0.1986
     40 H          19.7240   20.6830   14.3620 H       1  LIG1        0.1957
@<TRIPOS>BOND
     1     1     2   ar
     2     2     3   ar
     3     3     4   ar
     4     4     5   ar
     5     5     1   ar
     6     4     6    1
     7     6     7    1
     8     6     8    1
     9     6     9    1
    10     9    10    1
    11     9    11    1
    12     9    12    1
    13     2    13    1
    14    13    14   ar
    15    14    15    1
    16    14    16   ar
    17    16    17    1
    18    16    18   ar
    19    18    19   ar
    20    19    20    1
    21    19    21   ar
    22    21    22    1
    23    21    13   ar
    24    18    23    1
    25     1    24    1
    26    24    25   ar
    27    25    26    1
    28    25    27   ar
    29    27    28    1
    30    27    29   ar
    31    29    30   ar
    32    30    31    1
    33    30    32   ar
    34    32    33    1
    35    32    24   ar
    36    29    34    1
    37    34    35    2
    38    34    36    2
    39    34    37    1
    40    37    38    1
    41    37    39    1
    42    37    40    1
