@<TRIPOS>MOLECULE
11_10
 37 39 0 0 0
SMALL
USER_CHARGES
****
From 3DB ct
@<TRIPOS>ATOM
      1 C          25.4830   21.5030   17.2330 C.ar    1  LIG1       -0.5532
      2 C          26.4390   22.0730   16.4030 C.ar    1  LIG1        0.5234
      3 N          27.7410   22.0490   16.8920 N.ar    1  LIG1       -0.4206
      4 C          27.7820   21.4390   18.0680 C.ar    1  LIG1       -0.3423
      5 S          26.2560   20.8870   18.6430 S.2     1  LIG1        0.3338
      6 C          29.0050   21.2030   18.9110 C.3     1  LIG1        1.6982
      7 F          29.2420   19.8750   19.1410 F       1  LIG1       -0.4887
      8 F          28.9220   21.7940   20.1420 F       1  LIG1       -0.4885
      9 F          30.1460   21.6920   18.3370 F       1  LIG1       -0.4832
     10 C          26.1660   22.6900   15.1100 C.ar    1  LIG1       -0.1872
     11 C          25.6660   21.9440   14.0320 C.ar    1  LIG1        0.0089
     12 H          25.4710   20.8780   14.1320 H       1  LIG1        0.1094
     13 C          25.4190   22.5600   12.8020 C.ar    1  LIG1       -0.4104
     14 H          25.0280   21.9850   11.9680 H       1  LIG1        0.2340
     15 C          25.6800   23.9160   12.6480 C.ar    1  LIG1        0.5714
     16 C          26.1900   24.6690   13.6990 C.ar    1  LIG1       -0.3464
     17 H          26.3940   25.7270   13.5600 H       1  LIG1        0.2204
     18 C          26.4370   24.0550   14.9290 C.ar    1  LIG1       -0.0716
     19 H          26.8380   24.6510   15.7480 H       1  LIG1        0.1964
     20 F          25.4440   24.5040   11.4680 F       1  LIG1       -0.3610
     21 C          24.0260   21.4010   17.1140 C.ar    1  LIG1        0.3883
     22 C          23.3110   20.4300   17.8310 C.ar    1  LIG1       -0.1914
     23 H          23.8290   19.7330   18.4890 H       1  LIG1        0.1776
     24 C          21.9220   20.3300   17.7060 C.ar    1  LIG1       -0.0697
     25 H          21.3880   19.5670   18.2690 H       1  LIG1        0.1995
     26 C          21.2410   21.2100   16.8620 C.ar    1  LIG1       -0.4879
     27 C          21.9380   22.1760   16.1320 C.ar    1  LIG1       -0.0457
     28 H          21.4160   22.8590   15.4660 H       1  LIG1        0.2051
     29 C          23.3260   22.2700   16.2630 C.ar    1  LIG1       -0.2683
     30 H          23.8570   23.0330   15.6940 H       1  LIG1        0.1922
     31 S          19.4760   21.0760   16.6830 S.O2    1  LIG1        2.1953
     32 O          18.9440   22.4150   16.4510 O.2     1  LIG1       -0.9654
     33 O          18.9670   20.3140   17.8190 O.2     1  LIG1       -0.9647
     34 C          19.2760   20.1140   15.2060 C.3     1  LIG1       -0.7535
     35 H          18.2060   19.9880   15.0270 H       1  LIG1        0.2511
     36 H          19.7460   19.1400   15.3500 H       1  LIG1        0.1990
     37 H          19.7330   20.6470   14.3700 H       1  LIG1        0.1958
@<TRIPOS>BOND
     1     1     2   ar
     2     2     3   ar
     3     3     4   ar
     4     4     5   ar
     5     5     1   ar
     6     4     6    1
     7     6     7    1
     8     6     8    1
     9     6     9    1
    10     2    10    1
    11    10    11   ar
    12    11    12    1
    13    11    13   ar
    14    13    14    1
    15    13    15   ar
    16    15    16   ar
    17    16    17    1
    18    16    18   ar
    19    18    19    1
    20    18    10   ar
    21    15    20    1
    22     1    21    1
    23    21    22   ar
    24    22    23    1
    25    22    24   ar
    26    24    25    1
    27    24    26   ar
    28    26    27   ar
    29    27    28    1
    30    27    29   ar
    31    29    30    1
    32    29    21   ar
    33    26    31    1
    34    31    32    2
    35    31    33    2
    36    31    34    1
    37    34    35    1
    38    34    36    1
    39    34    37    1
