@<TRIPOS>MOLECULE
11_24
 41 44 0 0 0
SMALL
USER_CHARGES
****
From 3DB ct
@<TRIPOS>ATOM
      1 C          25.4810   21.5040   17.2320 C.ar    1  LIG1       -0.6107
      2 C          26.4380   22.0730   16.4020 C.ar    1  LIG1        0.3980
      3 N          27.7380   22.0470   16.8930 N.ar    1  LIG1       -0.5398
      4 C          27.7780   21.4400   18.0640 C.ar    1  LIG1        0.2905
      5 S          26.2560   20.8900   18.6400 S.2     1  LIG1        0.2454
      6 C          29.0270   21.2740   18.7770 C.ar    1  LIG1       -0.4194
      7 C          30.2690   21.7130   18.3480 C.ar    1  LIG1        0.1417
      8 H          30.4190   22.2360   17.4090 H       1  LIG1        0.1498
      9 C          31.3180   21.4060   19.2630 C.ar    1  LIG1       -0.3359
     10 H          32.3610   21.6620   19.1140 H       1  LIG1        0.2277
     11 C          30.8510   20.7390   20.3710 C.ar    1  LIG1       -0.2869
     12 H          31.4220   20.3850   21.2200 H       1  LIG1        0.2489
     13 S          29.1630   20.4890   20.3010 S.2     1  LIG1        0.2622
     14 C          26.1690   22.6900   15.1090 C.ar    1  LIG1       -0.0921
     15 C          25.6710   21.9450   14.0300 C.ar    1  LIG1       -0.0212
     16 H          25.4760   20.8790   14.1280 H       1  LIG1        0.1202
     17 C          25.4270   22.5610   12.7990 C.ar    1  LIG1       -0.4141
     18 H          25.0380   21.9870   11.9630 H       1  LIG1        0.2324
     19 C          25.6890   23.9180   12.6470 C.ar    1  LIG1        0.5657
     20 C          26.1950   24.6700   13.6990 C.ar    1  LIG1       -0.3757
     21 H          26.4000   25.7280   13.5610 H       1  LIG1        0.2227
     22 C          26.4400   24.0560   14.9300 C.ar    1  LIG1       -0.0649
     23 H          26.8390   24.6500   15.7510 H       1  LIG1        0.1891
     24 F          25.4550   24.5060   11.4660 F       1  LIG1       -0.3643
     25 C          24.0250   21.4010   17.1140 C.ar    1  LIG1        0.4201
     26 C          23.3100   20.4300   17.8320 C.ar    1  LIG1       -0.1710
     27 H          23.8300   19.7340   18.4890 H       1  LIG1        0.1678
     28 C          21.9210   20.3300   17.7080 C.ar    1  LIG1       -0.1087
     29 H          21.3880   19.5670   18.2720 H       1  LIG1        0.1991
     30 C          21.2390   21.2100   16.8650 C.ar    1  LIG1       -0.5001
     31 C          21.9350   22.1750   16.1340 C.ar    1  LIG1       -0.0288
     32 H          21.4130   22.8580   15.4680 H       1  LIG1        0.2014
     33 C          23.3240   22.2700   16.2640 C.ar    1  LIG1       -0.2929
     34 H          23.8530   23.0330   15.6940 H       1  LIG1        0.1970
     35 S          19.4740   21.0730   16.6860 S.O2    1  LIG1        2.2135
     36 O          18.9390   22.4120   16.4630 O.2     1  LIG1       -0.9763
     37 O          18.9680   20.3020   17.8180 O.2     1  LIG1       -0.9733
     38 C          19.2740   20.1200   15.2040 C.3     1  LIG1       -0.7612
     39 H          18.2050   19.9930   15.0240 H       1  LIG1        0.2457
     40 H          19.7460   19.1450   15.3410 H       1  LIG1        0.2020
     41 H          19.7300   20.6580   14.3710 H       1  LIG1        0.1962
@<TRIPOS>BOND
     1     1     2   ar
     2     2     3   ar
     3     3     4   ar
     4     4     5   ar
     5     5     1   ar
     6     4     6    1
     7     6     7   ar
     8     7     8    1
     9     7     9   ar
    10     9    10    1
    11     9    11   ar
    12    11    12    1
    13    11    13   ar
    14    13     6   ar
    15     2    14    1
    16    14    15   ar
    17    15    16    1
    18    15    17   ar
    19    17    18    1
    20    17    19   ar
    21    19    20   ar
    22    20    21    1
    23    20    22   ar
    24    22    23    1
    25    22    14   ar
    26    19    24    1
    27     1    25    1
    28    25    26   ar
    29    26    27    1
    30    26    28   ar
    31    28    29    1
    32    28    30   ar
    33    30    31   ar
    34    31    32    1
    35    31    33   ar
    36    33    34    1
    37    33    25   ar
    38    30    35    1
    39    35    36    2
    40    35    37    2
    41    35    38    1
    42    38    39    1
    43    38    40    1
    44    38    41    1
