@<TRIPOS>MOLECULE
11_25
 43 46 0 0 0
SMALL
USER_CHARGES
****
From 3DB ct
@<TRIPOS>ATOM
      1 C          25.4810   21.5050   17.2310 C.ar    1  LIG1       -0.5965
      2 C          26.4370   22.0720   16.4020 C.ar    1  LIG1        0.4228
      3 N          27.7360   22.0450   16.8940 N.ar    1  LIG1       -0.4906
      4 C          27.7850   21.4330   18.0640 C.ar    1  LIG1        0.1810
      5 S          26.2560   20.8920   18.6380 S.2     1  LIG1        0.2107
      6 C          29.0270   21.2380   18.8330 C.ar    1  LIG1       -0.3772
      7 C          30.2460   21.7070   18.3220 C.ar    1  LIG1        0.3182
      8 H          30.2800   22.2200   17.3610 H       1  LIG1        0.0959
      9 C          31.4330   21.5300   19.0320 C.ar    1  LIG1       -0.6021
     10 H          32.3780   21.8930   18.6400 H       1  LIG1        0.2358
     11 C          31.3800   20.8790   20.2500 C.ar    1  LIG1        0.4584
     12 H          32.2830   20.7210   20.8360 H       1  LIG1        0.0991
     13 N          30.2340   20.4040   20.7890 N.ar    1  LIG1       -0.6799
     14 C          29.0930   20.5940   20.0680 C.ar    1  LIG1        0.3853
     15 H          28.2060   20.1840   20.5480 H       1  LIG1        0.1258
     16 C          26.1700   22.6900   15.1090 C.ar    1  LIG1       -0.1657
     17 C          25.6740   21.9460   14.0270 C.ar    1  LIG1        0.0219
     18 H          25.4800   20.8790   14.1250 H       1  LIG1        0.1110
     19 C          25.4320   22.5630   12.7970 C.ar    1  LIG1       -0.4320
     20 H          25.0450   21.9890   11.9600 H       1  LIG1        0.2351
     21 C          25.6940   23.9190   12.6460 C.ar    1  LIG1        0.5812
     22 C          26.1990   24.6710   13.6990 C.ar    1  LIG1       -0.3861
     23 H          26.4040   25.7290   13.5620 H       1  LIG1        0.2243
     24 C          26.4410   24.0560   14.9300 C.ar    1  LIG1       -0.0342
     25 H          26.8390   24.6500   15.7520 H       1  LIG1        0.1803
     26 F          25.4630   24.5090   11.4650 F       1  LIG1       -0.3655
     27 C          24.0240   21.4020   17.1130 C.ar    1  LIG1        0.4394
     28 C          23.3100   20.4300   17.8320 C.ar    1  LIG1       -0.1868
     29 H          23.8300   19.7330   18.4880 H       1  LIG1        0.1724
     30 C          21.9210   20.3290   17.7090 C.ar    1  LIG1       -0.0974
     31 H          21.3890   19.5660   18.2730 H       1  LIG1        0.2003
     32 C          21.2380   21.2090   16.8660 C.ar    1  LIG1       -0.5016
     33 C          21.9330   22.1740   16.1350 C.ar    1  LIG1       -0.0350
     34 H          21.4100   22.8570   15.4690 H       1  LIG1        0.2018
     35 C          23.3220   22.2710   16.2640 C.ar    1  LIG1       -0.2984
     36 H          23.8510   23.0340   15.6940 H       1  LIG1        0.1995
     37 S          19.4730   21.0710   16.6890 S.O2    1  LIG1        2.2132
     38 O          18.9370   22.4110   16.4740 O.2     1  LIG1       -0.9742
     39 O          18.9690   20.2950   17.8180 O.2     1  LIG1       -0.9721
     40 C          19.2720   20.1250   15.2030 C.3     1  LIG1       -0.7680
     41 H          18.2020   19.9980   15.0240 H       1  LIG1        0.2486
     42 H          19.7450   19.1500   15.3350 H       1  LIG1        0.2024
     43 H          19.7260   20.6670   14.3720 H       1  LIG1        0.1991
@<TRIPOS>BOND
     1     1     2   ar
     2     2     3   ar
     3     3     4   ar
     4     4     5   ar
     5     5     1   ar
     6     4     6    1
     7     6     7   ar
     8     7     8    1
     9     7     9   ar
    10     9    10    1
    11     9    11   ar
    12    11    12    1
    13    11    13   ar
    14    13    14   ar
    15    14    15    1
    16    14     6   ar
    17     2    16    1
    18    16    17   ar
    19    17    18    1
    20    17    19   ar
    21    19    20    1
    22    19    21   ar
    23    21    22   ar
    24    22    23    1
    25    22    24   ar
    26    24    25    1
    27    24    16   ar
    28    21    26    1
    29     1    27    1
    30    27    28   ar
    31    28    29    1
    32    28    30   ar
    33    30    31    1
    34    30    32   ar
    35    32    33   ar
    36    33    34    1
    37    33    35   ar
    38    35    36    1
    39    35    27   ar
    40    32    37    1
    41    37    38    2
    42    37    39    2
    43    37    40    1
    44    40    41    1
    45    40    42    1
    46    40    43    1
