@<TRIPOS>MOLECULE
11_30
 44 47 0 0 0
SMALL
USER_CHARGES
****
From 3DB ct
@<TRIPOS>ATOM
      1 C          25.4810   21.5020   17.2300 C.ar    1  LIG1       -0.6497
      2 C          26.4390   22.0720   16.4000 C.ar    1  LIG1        0.5287
      3 N          27.7390   22.0490   16.8910 N.ar    1  LIG1       -0.5564
      4 C          27.7730   21.4200   18.0470 C.ar    1  LIG1       -0.0971
      5 S          26.2520   20.8920   18.6430 S.2     1  LIG1        0.2474
      6 C          28.9780   21.2250   18.8530 C.ar    1  LIG1        0.7116
      7 C          30.1950   21.7400   18.3720 C.ar    1  LIG1       -0.4798
      8 H          30.2260   22.2720   17.4220 H       1  LIG1        0.2604
      9 C          31.3760   21.5850   19.1000 C.ar    1  LIG1        0.0240
     10 H          32.3100   21.9940   18.7170 H       1  LIG1        0.1393
     11 C          31.3600   20.9050   20.3150 C.ar    1  LIG1       -0.2657
     12 H          32.2800   20.7820   20.8840 H       1  LIG1        0.1794
     13 C          30.1640   20.3760   20.8000 C.ar    1  LIG1        0.2045
     14 H          30.1660   19.8380   21.7470 H       1  LIG1        0.0902
     15 C          28.9770   20.5290   20.0740 C.ar    1  LIG1       -0.6946
     16 CL         27.5450   19.8090   20.7290 Cl      1  LIG1        0.1315
     17 C          26.1690   22.6940   15.1090 C.ar    1  LIG1        0.0448
     18 C          25.6740   21.9530   14.0250 C.ar    1  LIG1       -0.2066
     19 H          25.4800   20.8860   14.1200 H       1  LIG1        0.1241
     20 C          25.4310   22.5710   12.7940 C.ar    1  LIG1       -0.0586
     21 H          25.0440   21.9880   11.9600 H       1  LIG1        0.1631
     22 C          25.6910   23.9300   12.6350 C.ar    1  LIG1       -0.3965
     23 H          25.5080   24.4200   11.6830 H       1  LIG1        0.2272
     24 C          26.1960   24.6590   13.7060 C.ar    1  LIG1        0.6024
     25 C          26.4410   24.0560   14.9350 C.ar    1  LIG1       -0.4352
     26 H          26.8380   24.6550   15.7500 H       1  LIG1        0.2656
     27 F          26.4520   25.9650   13.5500 F       1  LIG1       -0.3765
     28 C          24.0240   21.4000   17.1120 C.ar    1  LIG1        0.5309
     29 C          23.3100   20.4300   17.8310 C.ar    1  LIG1       -0.2703
     30 H          23.8300   19.7330   18.4880 H       1  LIG1        0.1966
     31 C          21.9210   20.3300   17.7070 C.ar    1  LIG1       -0.0426
     32 H          21.3880   19.5670   18.2710 H       1  LIG1        0.1922
     33 C          21.2380   21.2100   16.8650 C.ar    1  LIG1       -0.5386
     34 C          21.9340   22.1750   16.1340 C.ar    1  LIG1       -0.0283
     35 H          21.4120   22.8590   15.4680 H       1  LIG1        0.2038
     36 C          23.3230   22.2700   16.2620 C.ar    1  LIG1       -0.3161
     37 H          23.8530   23.0320   15.6920 H       1  LIG1        0.1922
     38 S          19.4740   21.0720   16.6900 S.O2    1  LIG1        2.2193
     39 O          18.9350   22.4150   16.5010 O.2     1  LIG1       -0.9748
     40 O          18.9720   20.2740   17.8050 O.2     1  LIG1       -0.9732
     41 C          19.2710   20.1530   15.1870 C.3     1  LIG1       -0.7644
     42 H          18.2010   20.0250   15.0100 H       1  LIG1        0.2470
     43 H          19.7480   19.1770   15.3000 H       1  LIG1        0.2027
     44 H          19.7190   20.7120   14.3640 H       1  LIG1        0.1962
@<TRIPOS>BOND
     1     1     2   ar
     2     2     3   ar
     3     3     4   ar
     4     4     5   ar
     5     5     1   ar
     6     4     6    1
     7     6     7   ar
     8     7     8    1
     9     7     9   ar
    10     9    10    1
    11     9    11   ar
    12    11    12    1
    13    11    13   ar
    14    13    14    1
    15    13    15   ar
    16    15     6   ar
    17    15    16    1
    18     2    17    1
    19    17    18   ar
    20    18    19    1
    21    18    20   ar
    22    20    21    1
    23    20    22   ar
    24    22    23    1
    25    22    24   ar
    26    24    25   ar
    27    25    26    1
    28    25    17   ar
    29    24    27    1
    30     1    28    1
    31    28    29   ar
    32    29    30    1
    33    29    31   ar
    34    31    32    1
    35    31    33   ar
    36    33    34   ar
    37    34    35    1
    38    34    36   ar
    39    36    37    1
    40    36    28   ar
    41    33    38    1
    42    38    39    2
    43    38    40    2
    44    38    41    1
    45    41    42    1
    46    41    43    1
    47    41    44    1
