@<TRIPOS>MOLECULE
11_32
 44 47 0 0 0
SMALL
USER_CHARGES
****
From 3DB ct
@<TRIPOS>ATOM
      1 C          25.4910   21.5070   17.2390 C.ar    1  LIG1       -0.7256
      2 C          26.4480   22.0740   16.4080 C.ar    1  LIG1        0.8739
      3 N          27.7530   22.0240   16.8790 N.ar    1  LIG1       -0.5165
      4 C          27.7880   21.3990   18.0380 C.ar    1  LIG1       -0.2946
      5 S          26.2640   20.8920   18.6480 S.2     1  LIG1        0.3097
      6 C          28.9960   21.1900   18.8350 C.ar    1  LIG1        0.7714
      7 C          30.2150   21.6870   18.3420 C.ar    1  LIG1       -0.4633
      8 H          30.2460   22.2150   17.3890 H       1  LIG1        0.2589
      9 C          31.4010   21.5200   19.0610 C.ar    1  LIG1        0.0072
     10 H          32.3360   21.9150   18.6680 H       1  LIG1        0.1444
     11 C          31.3850   20.8460   20.2800 C.ar    1  LIG1       -0.2648
     12 H          32.3080   20.7140   20.8410 H       1  LIG1        0.1797
     13 C          30.1860   20.3340   20.7770 C.ar    1  LIG1        0.2026
     14 H          30.1890   19.8010   21.7250 H       1  LIG1        0.0887
     15 C          28.9960   20.5000   20.0590 C.ar    1  LIG1       -0.6949
     16 CL         27.5600   19.8000   20.7280 Cl      1  LIG1        0.1343
     17 C          26.1590   22.6910   15.1240 C.ar    1  LIG1       -0.6408
     18 C          25.6350   21.9350   14.0650 C.ar    1  LIG1        0.0977
     19 H          25.4380   20.8710   14.1820 H       1  LIG1        0.1427
     20 C          25.3660   22.5430   12.8360 C.ar    1  LIG1       -0.4516
     21 H          24.9590   21.9630   12.0120 H       1  LIG1        0.2384
     22 C          25.6250   23.9000   12.6670 C.ar    1  LIG1        0.6577
     23 C          26.1490   24.6640   13.7010 C.ar    1  LIG1       -0.6268
     24 H          26.3460   25.7200   13.5610 H       1  LIG1        0.2965
     25 C          26.4150   24.0530   14.9230 C.ar    1  LIG1        0.7266
     26 F          26.9070   24.8080   15.9190 F       1  LIG1       -0.3625
     27 F          25.3650   24.4780   11.4870 F       1  LIG1       -0.3576
     28 C          24.0360   21.4090   17.1130 C.ar    1  LIG1        0.5234
     29 C          23.3170   20.4380   17.8270 C.ar    1  LIG1       -0.3280
     30 H          23.8320   19.7430   18.4880 H       1  LIG1        0.2129
     31 C          21.9280   20.3390   17.6930 C.ar    1  LIG1       -0.0224
     32 H          21.3910   19.5770   18.2540 H       1  LIG1        0.1846
     33 C          21.2520   21.2180   16.8450 C.ar    1  LIG1       -0.5432
     34 C          21.9530   22.1830   16.1180 C.ar    1  LIG1       -0.0074
     35 H          21.4360   22.8660   15.4480 H       1  LIG1        0.2020
     36 C          23.3410   22.2770   16.2560 C.ar    1  LIG1       -0.2965
     37 H          23.8740   23.0410   15.6910 H       1  LIG1        0.1915
     38 S          19.4880   21.0800   16.6590 S.O2    1  LIG1        2.2128
     39 O          18.9590   22.4160   16.4000 O.2     1  LIG1       -0.9718
     40 O          18.9720   20.3390   17.8050 O.2     1  LIG1       -0.9667
     41 C          19.2960   20.0910   15.2000 C.3     1  LIG1       -0.7953
     42 H          18.2270   19.9580   15.0190 H       1  LIG1        0.2598
     43 H          19.7680   19.1200   15.3640 H       1  LIG1        0.2101
     44 H          19.7540   20.6080   14.3560 H       1  LIG1        0.2026
@<TRIPOS>BOND
     1     1     2   ar
     2     2     3   ar
     3     3     4   ar
     4     4     5   ar
     5     5     1   ar
     6     4     6    1
     7     6     7   ar
     8     7     8    1
     9     7     9   ar
    10     9    10    1
    11     9    11   ar
    12    11    12    1
    13    11    13   ar
    14    13    14    1
    15    13    15   ar
    16    15     6   ar
    17    15    16    1
    18     2    17    1
    19    17    18   ar
    20    18    19    1
    21    18    20   ar
    22    20    21    1
    23    20    22   ar
    24    22    23   ar
    25    23    24    1
    26    23    25   ar
    27    25    17   ar
    28    25    26    1
    29    22    27    1
    30     1    28    1
    31    28    29   ar
    32    29    30    1
    33    29    31   ar
    34    31    32    1
    35    31    33   ar
    36    33    34   ar
    37    34    35    1
    38    34    36   ar
    39    36    37    1
    40    36    28   ar
    41    33    38    1
    42    38    39    2
    43    38    40    2
    44    38    41    1
    45    41    42    1
    46    41    43    1
    47    41    44    1
