@<TRIPOS>MOLECULE
11_33
 43 46 0 0 0
SMALL
USER_CHARGES
****
From 3DB ct
@<TRIPOS>ATOM
      1 C          25.3990   22.0500   17.4000 C.3     1  LIG1       -0.1688
      2 H          25.5010   23.1270   17.5870 H       1  LIG1        0.0872
      3 C          26.3100   21.6360   16.2210 C.3     1  LIG1        0.6828
      4 H          26.0170   20.6600   15.8090 H       1  LIG1        0.0153
      5 N          27.7180   21.4850   16.7000 N.2     1  LIG1       -0.6293
      6 C          27.7110   21.2600   17.9750 C.2     1  LIG1       -0.0474
      7 S          26.1850   21.2300   18.8190 S.3     1  LIG1       -0.0714
      8 C          28.9290   21.0090   18.7470 C.ar    1  LIG1        0.5790
      9 C          30.1490   21.0150   18.0580 C.ar    1  LIG1       -0.3804
     10 H          30.1770   21.1980   16.9860 H       1  LIG1        0.2425
     11 C          31.3370   20.7810   18.7510 C.ar    1  LIG1       -0.0445
     12 H          32.2860   20.7800   18.2190 H       1  LIG1        0.1487
     13 C          31.3070   20.5500   20.1270 C.ar    1  LIG1       -0.2227
     14 H          32.2350   20.3680   20.6670 H       1  LIG1        0.1736
     15 C          30.0910   20.5570   20.8150 C.ar    1  LIG1        0.1447
     16 H          30.0860   20.3840   21.8890 H       1  LIG1        0.0909
     17 C          28.8960   20.7910   20.1280 C.ar    1  LIG1       -0.5732
     18 CL         27.4280   20.8250   21.0380 Cl      1  LIG1        0.1300
     19 C          26.2830   22.6660   15.1130 C.ar    1  LIG1       -0.4991
     20 C          26.6000   24.0120   15.1720 C.ar    1  LIG1        0.0498
     21 H          26.9380   24.5040   16.0790 H       1  LIG1        0.1784
     22 C          26.4340   24.6680   13.9190 C.ar    1  LIG1       -0.3452
     23 H          26.6270   25.7210   13.7440 H       1  LIG1        0.2239
     24 C          25.9950   23.8050   12.9400 C.ar    1  LIG1       -0.2442
     25 H          25.7860   24.0350   11.9030 H       1  LIG1        0.2277
     26 S          25.7870   22.2160   13.5320 S.2     1  LIG1        0.1782
     27 C          23.9320   21.6970   17.2540 C.ar    1  LIG1        0.4071
     28 C          23.1250   22.4530   16.3860 C.ar    1  LIG1       -0.4244
     29 H          23.5470   23.2890   15.8280 H       1  LIG1        0.2083
     30 C          21.7720   22.1490   16.2150 C.ar    1  LIG1        0.0626
     31 H          21.1700   22.7490   15.5350 H       1  LIG1        0.1836
     32 C          21.2100   21.0850   16.9220 C.ar    1  LIG1       -0.5634
     33 C          21.9930   20.3150   17.7830 C.ar    1  LIG1       -0.0001
     34 H          21.5650   19.4790   18.3320 H       1  LIG1        0.1972
     35 C          23.3460   20.6240   17.9490 C.ar    1  LIG1       -0.3277
     36 H          23.9370   20.0150   18.6320 H       1  LIG1        0.1868
     37 S          19.4920   20.6860   16.6900 S.O2    1  LIG1        2.2024
     38 O          18.7890   21.9120   16.3250 O.2     1  LIG1       -0.9722
     39 O          19.0410   19.9520   17.8680 O.2     1  LIG1       -0.9696
     40 C          19.4990   19.5920   15.2950 C.3     1  LIG1       -0.7661
     41 H          18.4670   19.3020   15.0870 H       1  LIG1        0.2512
     42 H          20.0910   18.7070   15.5390 H       1  LIG1        0.2022
     43 H          19.9190   20.1150   14.4340 H       1  LIG1        0.1957
@<TRIPOS>BOND
     1     2     1    1
     2     1     3    1
     3     3     4    1
     4     3     5    1
     5     5     6    2
     6     6     7    1
     7     7     1    1
     8     6     8    1
     9     8     9   ar
    10     9    10    1
    11     9    11   ar
    12    11    12    1
    13    11    13   ar
    14    13    14    1
    15    13    15   ar
    16    15    16    1
    17    15    17   ar
    18    17     8   ar
    19    17    18    1
    20     3    19    1
    21    19    20   ar
    22    20    21    1
    23    20    22   ar
    24    22    23    1
    25    22    24   ar
    26    24    25    1
    27    24    26   ar
    28    26    19   ar
    29     1    27    1
    30    27    28   ar
    31    28    29    1
    32    28    30   ar
    33    30    31    1
    34    30    32   ar
    35    32    33   ar
    36    33    34    1
    37    33    35   ar
    38    35    36    1
    39    35    27   ar
    40    32    37    1
    41    37    38    2
    42    37    39    2
    43    37    40    1
    44    40    41    1
    45    40    42    1
    46    40    43    1
