@<TRIPOS>MOLECULE
12_5b
 36 38 0 0 0
SMALL
USER_CHARGES
****
From 3DB ct
@<TRIPOS>ATOM
      1 C          25.4820   21.5030   17.2330 C.ar    1  LIG1       -0.6454
      2 C          26.4390   22.0720   16.4020 C.ar    1  LIG1        0.3228
      3 N          27.7410   22.0450   16.8910 N.ar    1  LIG1       -0.5613
      4 C          27.7710   21.4380   18.0580 C.ar    1  LIG1        0.2884
      5 S          26.2570   20.8870   18.6430 S.2     1  LIG1        0.1794
      6 C          29.0030   21.2180   18.8650 C.3     1  LIG1       -0.2332
      7 H          28.9260   21.7160   19.8370 H       1  LIG1        0.0981
      8 H          29.8770   21.6250   18.3470 H       1  LIG1        0.1052
      9 H          29.1760   20.1490   19.0290 H       1  LIG1        0.0975
     10 C          26.1670   22.6900   15.1100 C.ar    1  LIG1        0.2387
     11 C          25.6670   21.9460   14.0310 C.ar    1  LIG1       -0.3095
     12 H          25.4720   20.8800   14.1310 H       1  LIG1        0.1448
     13 C          25.4190   22.5620   12.8000 C.ar    1  LIG1        0.2298
     14 H          25.0280   21.9710   11.9750 H       1  LIG1        0.0822
     15 C          25.6800   23.9210   12.6390 C.ar    1  LIG1       -0.6208
     16 C          26.1900   24.6700   13.6970 C.ar    1  LIG1        0.2798
     17 H          26.4000   25.7300   13.5760 H       1  LIG1        0.0683
     18 C          26.4370   24.0540   14.9280 C.ar    1  LIG1       -0.3803
     19 H          26.8380   24.6490   15.7480 H       1  LIG1        0.2257
     20 CL         25.3750   24.6780   11.1240 Cl      1  LIG1        0.1149
     21 C          24.0250   21.4020   17.1150 C.ar    1  LIG1        0.5430
     22 C          23.3100   20.4310   17.8340 C.ar    1  LIG1       -0.2001
     23 H          23.8290   19.7350   18.4920 H       1  LIG1        0.1688
     24 C          21.9200   20.3320   17.7100 C.ar    1  LIG1       -0.0597
     25 H          21.3860   19.5710   18.2750 H       1  LIG1        0.2059
     26 C          21.2370   21.2110   16.8670 C.ar    1  LIG1       -0.5859
     27 C          21.9350   22.1760   16.1370 C.ar    1  LIG1        0.0435
     28 H          21.4090   22.8600   15.4730 H       1  LIG1        0.1947
     29 C          23.3240   22.2710   16.2650 C.ar    1  LIG1       -0.3705
     30 H          23.8540   23.0340   15.6960 H       1  LIG1        0.2066
     31 S          19.4800   21.0730   16.6770 S.O2    1  LIG1        2.4702
     32 O          18.9500   22.3260   16.1700 O.2     1  LIG1       -1.0033
     33 O          18.9200   20.4660   17.8710 O.2     1  LIG1       -0.9982
     34 N          19.3480   19.9510   15.4410 N.3     1  LIG1       -1.3075
     35 H          18.8900   20.3580   14.6210 H       1  LIG1        0.4841
     36 H          18.8640   19.1070   15.7580 H       1  LIG1        0.4834
@<TRIPOS>BOND
     1     1     2   ar
     2     2     3   ar
     3     3     4   ar
     4     4     5   ar
     5     5     1   ar
     6     4     6    1
     7     6     7    1
     8     6     8    1
     9     6     9    1
    10     2    10    1
    11    10    11   ar
    12    11    12    1
    13    11    13   ar
    14    13    14    1
    15    13    15   ar
    16    15    16   ar
    17    16    17    1
    18    16    18   ar
    19    18    19    1
    20    18    10   ar
    21    15    20    1
    22     1    21    1
    23    21    22   ar
    24    22    23    1
    25    22    24   ar
    26    24    25    1
    27    24    26   ar
    28    26    27   ar
    29    27    28    1
    30    27    29   ar
    31    29    30    1
    32    29    21   ar
    33    26    31    1
    34    31    32    2
    35    31    33    2
    36    31    34    1
    37    34    35    1
    38    34    36    1
