@<TRIPOS>MOLECULE
13_10
 43 45 0 0 0
SMALL
USER_CHARGES
****
From 3DB ct
@<TRIPOS>ATOM
      1 C          25.7990   23.8990   12.6100 C.ar    1  LIG1        0.5887
      2 C          25.5450   22.5430   12.7780 C.ar    1  LIG1       -0.4060
      3 H          25.1820   21.9520   11.9420 H       1  LIG1        0.2339
      4 C          25.7570   21.9510   14.0240 C.ar    1  LIG1       -0.0755
      5 H          25.5540   20.8890   14.1500 H       1  LIG1        0.1682
      6 C          26.2270   22.7220   15.0960 C.ar    1  LIG1       -0.0084
      7 C          26.4760   24.0900   14.9120 C.ar    1  LIG1       -0.0126
      8 H          26.8330   24.7060   15.7360 H       1  LIG1        0.1563
      9 C          26.2620   24.6780   13.6640 C.ar    1  LIG1       -0.4101
     10 H          26.4530   25.7370   13.5140 H       1  LIG1        0.2313
     11 C          26.4280   22.1110   16.3950 C.ar    1  LIG1       -0.0793
     12 C          25.4830   21.5200   17.2890 C.ar    1  LIG1        0.1372
     13 N          26.1090   21.0100   18.3620 N.ar    1  LIG1       -0.3187
     14 N          27.4190   21.2790   18.1640 N.ar    1  LIG1        0.0514
     15 C          27.6700   21.9160   16.9780 C.ar    1  LIG1       -0.4983
     16 C          29.0450   22.2330   16.5450 C.3     1  LIG1        1.6530
     17 F          29.1060   22.9510   15.3920 F       1  LIG1       -0.4695
     18 F          29.7780   21.1060   16.3260 F       1  LIG1       -0.4821
     19 F          29.7210   22.9570   17.4780 F       1  LIG1       -0.4633
     20 C          28.3700   20.8520   19.1810 C.3     1  LIG1        0.1363
     21 H          29.3040   20.5670   18.6880 H       1  LIG1        0.0592
     22 H          27.9620   19.9500   19.6510 H       1  LIG1        0.0814
     23 C          28.6190   21.9280   20.2250 C.3     1  LIG1       -0.0975
     24 H          29.3380   21.5750   20.9700 H       1  LIG1        0.0529
     25 H          27.6930   22.1950   20.7440 H       1  LIG1        0.0513
     26 H          29.0190   22.8390   19.7680 H       1  LIG1        0.0410
     27 C          24.0270   21.4110   17.1540 C.ar    1  LIG1        0.2017
     28 C          23.3080   22.2720   16.3120 C.ar    1  LIG1       -0.2367
     29 H          23.8120   23.0560   15.7510 H       1  LIG1        0.1575
     30 C          21.9190   22.1520   16.1880 C.ar    1  LIG1        0.0571
     31 H          21.3780   22.8280   15.5280 H       1  LIG1        0.1806
     32 C          21.2390   21.1740   16.9190 C.ar    1  LIG1       -0.6259
     33 C          21.9380   20.3110   17.7640 C.ar    1  LIG1        0.0717
     34 H          21.4190   19.5430   18.3340 H       1  LIG1        0.1767
     35 C          23.3260   20.4350   17.8830 C.ar    1  LIG1       -0.2512
     36 H          23.8610   19.7570   18.5470 H       1  LIG1        0.1892
     37 S          19.4840   21.0170   16.7330 S.O2    1  LIG1        2.4643
     38 O          18.9010   22.3250   16.4960 O.2     1  LIG1       -0.9996
     39 O          18.9740   20.1630   17.7920 O.2     1  LIG1       -1.0007
     40 N          19.3550   20.1630   15.2970 N.3     1  LIG1       -1.3111
     41 H          18.8630   20.7100   14.5860 H       1  LIG1        0.4856
     42 H          18.9060   19.2560   15.4470 H       1  LIG1        0.4849
     43 F          25.5920   24.4660   11.4130 F       1  LIG1       -0.3648
@<TRIPOS>BOND
     1     1     2   ar
     2     2     3    1
     3     2     4   ar
     4     4     5    1
     5     4     6   ar
     6     6     7   ar
     7     7     8    1
     8     7     9   ar
     9     9    10    1
    10     9     1   ar
    11     6    11    1
    12    11    12   ar
    13    12    13   ar
    14    13    14   ar
    15    14    15   ar
    16    15    11   ar
    17    15    16    1
    18    16    17    1
    19    16    18    1
    20    16    19    1
    21    14    20    1
    22    20    21    1
    23    20    22    1
    24    20    23    1
    25    23    24    1
    26    23    25    1
    27    23    26    1
    28    12    27    1
    29    27    28   ar
    30    28    29    1
    31    28    30   ar
    32    30    31    1
    33    30    32   ar
    34    32    33   ar
    35    33    34    1
    36    33    35   ar
    37    35    36    1
    38    35    27   ar
    39    32    37    1
    40    37    38    2
    41    37    39    2
    42    37    40    1
    43    40    41    1
    44    40    42    1
    45     1    43    1
