@<TRIPOS>MOLECULE
1_38
 43 45 0 0 0
SMALL
USER_CHARGES
****
From 3DB ct
@<TRIPOS>ATOM
      1 N          26.4470   22.0470   16.4100 N.ar    1  LIG1       -0.2661
      2 C          25.5300   21.5460   17.3410 C.ar    1  LIG1       -0.1870
      3 C          26.2500   21.0610   18.4190 C.ar    1  LIG1       -0.3058
      4 H          25.8170   20.5930   19.2970 H       1  LIG1        0.2356
      5 C          27.6310   21.2370   18.1660 C.ar    1  LIG1       -0.2331
      6 C          27.7330   21.8650   16.9300 C.ar    1  LIG1        0.3064
      7 C          28.9800   22.3680   16.2740 C.3     1  LIG1       -0.4613
      8 H          29.7690   22.5330   17.0160 H       1  LIG1        0.1606
      9 H          28.8200   23.3280   15.7730 H       1  LIG1        0.1497
     10 H          29.3570   21.6380   15.5520 H       1  LIG1        0.1323
     11 C          28.7410   20.8350   19.0820 C.3     1  LIG1        0.4052
     12 H          29.6430   20.5900   18.5110 H       1  LIG1       -0.0438
     13 H          28.4560   19.9530   19.6650 H       1  LIG1       -0.0044
     14 O          29.0500   21.8910   19.9900 O.3     1  LIG1       -0.6716
     15 H          29.7750   21.5380   20.5470 H       1  LIG1        0.3992
     16 C          24.0770   21.4450   17.1570 C.ar    1  LIG1        0.3770
     17 C          23.4030   22.2980   16.2700 C.ar    1  LIG1       -0.2681
     18 H          23.9500   23.0520   15.7060 H       1  LIG1        0.1913
     19 C          22.0200   22.1920   16.0950 C.ar    1  LIG1       -0.0286
     20 H          21.5160   22.8680   15.4070 H       1  LIG1        0.1914
     21 C          21.3070   21.2250   16.8080 C.ar    1  LIG1       -0.5335
     22 C          21.9680   20.3510   17.6740 C.ar    1  LIG1       -0.0254
     23 H          21.4220   19.5860   18.2220 H       1  LIG1        0.1879
     24 C          23.3510   20.4620   17.8440 C.ar    1  LIG1       -0.2838
     25 H          23.8570   19.7800   18.5260 H       1  LIG1        0.1941
     26 S          19.5490   21.0760   16.5830 S.O2    1  LIG1        2.2102
     27 O          19.0200   22.4070   16.3060 O.2     1  LIG1       -0.9764
     28 O          19.0100   20.3370   17.7210 O.2     1  LIG1       -0.9783
     29 C          19.3960   20.0770   15.1260 C.3     1  LIG1       -0.7186
     30 H          18.3330   19.9370   14.9210 H       1  LIG1        0.2314
     31 H          19.8700   19.1100   15.3060 H       1  LIG1        0.1875
     32 H          19.8710   20.5930   14.2890 H       1  LIG1        0.1863
     33 C          26.1260   22.6650   15.1610 C.ar    1  LIG1        0.2340
     34 C          25.5490   21.9130   14.1280 C.ar    1  LIG1       -0.1612
     35 H          25.2990   20.8630   14.2610 H       1  LIG1        0.1905
     36 C          25.2280   22.5230   12.9130 C.ar    1  LIG1       -0.3685
     37 H          24.7710   21.9490   12.1120 H       1  LIG1        0.2348
     38 C          25.4840   23.8780   12.7350 C.ar    1  LIG1        0.5421
     39 C          26.0550   24.6370   13.7500 C.ar    1  LIG1       -0.3494
     40 H          26.2530   25.6930   13.5900 H       1  LIG1        0.2329
     41 C          26.3760   24.0330   14.9670 C.ar    1  LIG1       -0.1591
     42 H          26.8520   24.6380   15.7360 H       1  LIG1        0.2037
     43 F          25.1740   24.4600   11.5690 F       1  LIG1       -0.3603
@<TRIPOS>BOND
     1     1     2   ar
     2     2     3   ar
     3     3     4    1
     4     3     5   ar
     5     5     6   ar
     6     6     1   ar
     7     6     7    1
     8     7     8    1
     9     7     9    1
    10     7    10    1
    11     5    11    1
    12    11    12    1
    13    11    13    1
    14    11    14    1
    15    14    15    1
    16     2    16    1
    17    16    17   ar
    18    17    18    1
    19    17    19   ar
    20    19    20    1
    21    19    21   ar
    22    21    22   ar
    23    22    23    1
    24    22    24   ar
    25    24    25    1
    26    24    16   ar
    27    21    26    1
    28    26    27    2
    29    26    28    2
    30    26    29    1
    31    29    30    1
    32    29    31    1
    33    29    32    1
    34     1    33    1
    35    33    34   ar
    36    34    35    1
    37    34    36   ar
    38    36    37    1
    39    36    38   ar
    40    38    39   ar
    41    39    40    1
    42    39    41   ar
    43    41    42    1
    44    41    33   ar
    45    38    43    1
