@<TRIPOS>MOLECULE
1_5
 39 41 0 0 0
SMALL
USER_CHARGES
****
From 3DB ct
@<TRIPOS>ATOM
      1 N          26.4450   22.0420   16.4040 N.ar    1  LIG1       -0.2586
      2 C          25.5270   21.5490   17.3430 C.ar    1  LIG1       -0.1706
      3 C          26.2460   21.0740   18.4280 C.ar    1  LIG1       -0.2093
      4 H          25.8160   20.6170   19.3130 H       1  LIG1        0.2067
      5 C          27.6130   21.2460   18.1610 C.ar    1  LIG1       -0.3806
      6 H          28.4380   20.9800   18.8130 H       1  LIG1        0.2373
      7 C          27.7290   21.8510   16.9250 C.ar    1  LIG1        0.2052
      8 C          28.9920   22.3220   16.2820 C.3     1  LIG1       -0.3489
      9 H          29.7820   22.4330   17.0330 H       1  LIG1        0.1173
     10 H          28.8680   23.2990   15.8060 H       1  LIG1        0.1117
     11 H          29.3450   21.5970   15.5430 H       1  LIG1        0.1157
     12 C          24.0740   21.4470   17.1600 C.ar    1  LIG1        0.3022
     13 C          23.3980   22.2970   16.2730 C.ar    1  LIG1       -0.2491
     14 H          23.9440   23.0520   15.7080 H       1  LIG1        0.1860
     15 C          22.0150   22.1890   16.0980 C.ar    1  LIG1       -0.0235
     16 H          21.5100   22.8620   15.4090 H       1  LIG1        0.1878
     17 C          21.3050   21.2210   16.8110 C.ar    1  LIG1       -0.5243
     18 C          21.9670   20.3480   17.6780 C.ar    1  LIG1       -0.0490
     19 H          21.4220   19.5830   18.2270 H       1  LIG1        0.1883
     20 C          23.3490   20.4630   17.8490 C.ar    1  LIG1       -0.2329
     21 H          23.8570   19.7830   18.5320 H       1  LIG1        0.1868
     22 S          19.5470   21.0680   16.5880 S.O2    1  LIG1        2.2038
     23 O          19.0120   22.4020   16.3320 O.2     1  LIG1       -0.9774
     24 O          19.0120   20.3110   17.7150 O.2     1  LIG1       -0.9771
     25 C          19.3950   20.0900   15.1160 C.3     1  LIG1       -0.7220
     26 H          18.3320   19.9480   14.9120 H       1  LIG1        0.2321
     27 H          19.8750   19.1240   15.2800 H       1  LIG1        0.1903
     28 H          19.8640   20.6210   14.2860 H       1  LIG1        0.1846
     29 C          26.1290   22.6660   15.1570 C.ar    1  LIG1        0.3338
     30 C          25.5580   21.9220   14.1170 C.ar    1  LIG1       -0.2532
     31 H          25.3050   20.8720   14.2410 H       1  LIG1        0.1789
     32 C          25.2440   22.5380   12.9020 C.ar    1  LIG1       -0.1203
     33 H          24.7900   21.9580   12.1010 H       1  LIG1        0.1551
     34 C          25.4990   23.8960   12.7190 C.ar    1  LIG1       -0.1605
     35 H          25.2530   24.3740   11.7730 H       1  LIG1        0.1557
     36 C          26.0670   24.6420   13.7500 C.ar    1  LIG1       -0.1191
     37 H          26.2710   25.7010   13.6060 H       1  LIG1        0.1595
     38 C          26.3810   24.0320   14.9670 C.ar    1  LIG1       -0.2443
     39 H          26.8540   24.6350   15.7390 H       1  LIG1        0.1824
@<TRIPOS>BOND
     1     1     2   ar
     2     2     3   ar
     3     3     4    1
     4     3     5   ar
     5     5     6    1
     6     5     7   ar
     7     7     1   ar
     8     7     8    1
     9     8     9    1
    10     8    10    1
    11     8    11    1
    12     2    12    1
    13    12    13   ar
    14    13    14    1
    15    13    15   ar
    16    15    16    1
    17    15    17   ar
    18    17    18   ar
    19    18    19    1
    20    18    20   ar
    21    20    21    1
    22    20    12   ar
    23    17    22    1
    24    22    23    2
    25    22    24    2
    26    22    25    1
    27    25    26    1
    28    25    27    1
    29    25    28    1
    30     1    29    1
    31    29    30   ar
    32    30    31    1
    33    30    32   ar
    34    32    33    1
    35    32    34   ar
    36    34    35    1
    37    34    36   ar
    38    36    37    1
    39    36    38   ar
    40    38    39    1
    41    38    29   ar
