@<TRIPOS>MOLECULE
1_6
 42 44 0 0 0
SMALL
USER_CHARGES
****
From 3DB ct
@<TRIPOS>ATOM
      1 N          26.4450   22.0410   16.4040 N.ar    1  LIG1       -0.3287
      2 C          25.5270   21.5480   17.3440 C.ar    1  LIG1       -0.1466
      3 C          26.2480   21.0750   18.4290 C.ar    1  LIG1       -0.1972
      4 H          25.8200   20.6190   19.3150 H       1  LIG1        0.2095
      5 C          27.6150   21.2480   18.1600 C.ar    1  LIG1       -0.3672
      6 H          28.4410   20.9830   18.8120 H       1  LIG1        0.2403
      7 C          27.7300   21.8520   16.9230 C.ar    1  LIG1        0.2123
      8 C          28.9910   22.3230   16.2770 C.3     1  LIG1       -0.3515
      9 H          29.7850   22.4280   17.0250 H       1  LIG1        0.1240
     10 H          28.8660   23.3030   15.8060 H       1  LIG1        0.1130
     11 H          29.3390   21.6010   15.5330 H       1  LIG1        0.1146
     12 C          24.0740   21.4450   17.1600 C.ar    1  LIG1        0.2801
     13 C          23.3990   22.2970   16.2740 C.ar    1  LIG1       -0.2464
     14 H          23.9450   23.0520   15.7100 H       1  LIG1        0.1816
     15 C          22.0160   22.1890   16.0980 C.ar    1  LIG1       -0.0240
     16 H          21.5120   22.8630   15.4090 H       1  LIG1        0.1918
     17 C          21.3050   21.2210   16.8110 C.ar    1  LIG1       -0.5092
     18 C          21.9660   20.3480   17.6770 C.ar    1  LIG1       -0.0602
     19 H          21.4210   19.5810   18.2240 H       1  LIG1        0.1908
     20 C          23.3490   20.4610   17.8480 C.ar    1  LIG1       -0.2262
     21 H          23.8560   19.7790   18.5290 H       1  LIG1        0.1843
     22 S          19.5470   21.0700   16.5860 S.O2    1  LIG1        2.2029
     23 O          19.0120   22.4040   16.3300 O.2     1  LIG1       -0.9745
     24 O          19.0110   20.3120   17.7120 O.2     1  LIG1       -0.9757
     25 C          19.3950   20.0940   15.1130 C.3     1  LIG1       -0.7215
     26 H          18.3320   19.9520   14.9080 H       1  LIG1        0.2355
     27 H          19.8740   19.1270   15.2780 H       1  LIG1        0.1903
     28 H          19.8660   20.6250   14.2840 H       1  LIG1        0.1863
     29 C          26.1280   22.6660   15.1580 C.ar    1  LIG1        0.5033
     30 C          25.5570   21.9220   14.1190 C.ar    1  LIG1       -0.3338
     31 H          25.3020   20.8720   14.2450 H       1  LIG1        0.2027
     32 C          25.2430   22.5380   12.9020 C.ar    1  LIG1        0.0352
     33 H          24.7850   21.9440   12.1110 H       1  LIG1        0.1670
     34 C          25.5020   23.9010   12.7000 C.ar    1  LIG1       -0.5149
     35 C          26.0650   24.6420   13.7500 C.ar    1  LIG1        0.0464
     36 H          26.2710   25.7040   13.6210 H       1  LIG1        0.1672
     37 C          26.3780   24.0310   14.9690 C.ar    1  LIG1       -0.3269
     38 H          26.8480   24.6340   15.7420 H       1  LIG1        0.2056
     39 C          25.1420   24.5660   11.3960 C.3     1  LIG1        1.5112
     40 F          25.9350   25.6370   11.0880 F       1  LIG1       -0.4616
     41 F          23.8610   25.0460   11.3820 F       1  LIG1       -0.4651
     42 F          25.2300   23.7330   10.3140 F       1  LIG1       -0.4646
@<TRIPOS>BOND
     1     1     2   ar
     2     2     3   ar
     3     3     4    1
     4     3     5   ar
     5     5     6    1
     6     5     7   ar
     7     7     1   ar
     8     7     8    1
     9     8     9    1
    10     8    10    1
    11     8    11    1
    12     2    12    1
    13    12    13   ar
    14    13    14    1
    15    13    15   ar
    16    15    16    1
    17    15    17   ar
    18    17    18   ar
    19    18    19    1
    20    18    20   ar
    21    20    21    1
    22    20    12   ar
    23    17    22    1
    24    22    23    2
    25    22    24    2
    26    22    25    1
    27    25    26    1
    28    25    27    1
    29    25    28    1
    30     1    29    1
    31    29    30   ar
    32    30    31    1
    33    30    32   ar
    34    32    33    1
    35    32    34   ar
    36    34    35   ar
    37    35    36    1
    38    35    37   ar
    39    37    38    1
    40    37    29   ar
    41    34    39    1
    42    39    40    1
    43    39    41    1
    44    39    42    1
