@<TRIPOS>MOLECULE
3_12
 42 44 0 0 0
SMALL
USER_CHARGES
****
From 3DB ct
@<TRIPOS>ATOM
      1 C          26.4070   22.1320   16.4620 C.ar    1  LIG1        0.4794
      2 N          25.4710   21.4600   17.2570 N.ar    1  LIG1       -0.2224
      3 C          26.2000   20.8800   18.2790 C.ar    1  LIG1       -0.1964
      4 H          25.7430   20.2690   19.0450 H       1  LIG1        0.2877
      5 C          27.5030   21.3200   18.1590 C.ar    1  LIG1       -0.2858
      6 N          27.6060   22.1150   17.0310 N.ar    1  LIG1       -0.4669
      7 C          28.6720   21.0340   19.0560 C.3     1  LIG1        1.5262
      8 F          28.3520   20.2110   20.0970 F       1  LIG1       -0.4807
      9 F          29.1880   22.1690   19.6100 F       1  LIG1       -0.4425
     10 F          29.6980   20.4280   18.3920 F       1  LIG1       -0.4475
     11 C          24.0490   21.3750   17.1220 C.ar    1  LIG1        0.3866
     12 C          23.3450   22.2600   16.2920 C.ar    1  LIG1       -0.3586
     13 H          23.8390   23.0610   15.7490 H       1  LIG1        0.2236
     14 C          21.9530   22.1720   16.1780 C.ar    1  LIG1        0.0488
     15 H          21.4260   22.8690   15.5290 H       1  LIG1        0.1892
     16 C          21.2560   21.2090   16.9090 C.ar    1  LIG1       -0.5435
     17 C          21.9400   20.3270   17.7460 C.ar    1  LIG1        0.0145
     18 H          21.4070   19.5670   18.3140 H       1  LIG1        0.1966
     19 C          23.3320   20.4170   17.8590 C.ar    1  LIG1       -0.3045
     20 H          23.8310   19.6990   18.5060 H       1  LIG1        0.2078
     21 S          19.4890   21.0870   16.7440 S.O2    1  LIG1        2.1904
     22 O          18.9630   22.4310   16.5270 O.2     1  LIG1       -0.9651
     23 O          18.9870   20.3190   17.8800 O.2     1  LIG1       -0.9628
     24 C          19.2690   20.1380   15.2630 C.3     1  LIG1       -0.7270
     25 H          18.1970   20.0220   15.0910 H       1  LIG1        0.2422
     26 H          19.7320   19.1580   15.3950 H       1  LIG1        0.1937
     27 H          19.7230   20.6730   14.4270 H       1  LIG1        0.1932
     28 C          26.1800   22.7100   15.1330 C.ar    1  LIG1       -0.2497
     29 C          26.4380   24.0670   14.9080 C.ar    1  LIG1       -0.0812
     30 H          26.7870   24.7010   15.7210 H       1  LIG1        0.1984
     31 C          26.2480   24.6230   13.6400 C.ar    1  LIG1       -0.3218
     32 H          26.4470   25.6830   13.4880 H       1  LIG1        0.1725
     33 C          25.8100   23.8340   12.5730 C.ar    1  LIG1        0.5374
     34 C          25.5700   22.4770   12.7850 C.ar    1  LIG1       -0.4949
     35 H          25.2390   21.8190   11.9870 H       1  LIG1        0.2275
     36 C          25.7610   21.9170   14.0550 C.ar    1  LIG1        0.1053
     37 H          25.5800   20.8520   14.1900 H       1  LIG1        0.1133
     38 O          25.6640   24.5000   11.3880 O.3     1  LIG1       -0.4562
     39 C          25.9800   25.8920   11.3910 C.3     1  LIG1        0.1322
     40 H          25.8220   26.2710   10.3770 H       1  LIG1        0.0797
     41 H          27.0320   26.0560   11.6490 H       1  LIG1        0.0337
     42 H          25.3150   26.4440   12.0620 H       1  LIG1        0.0273
@<TRIPOS>BOND
     1     1     2   ar
     2     2     3   ar
     3     3     4    1
     4     3     5   ar
     5     5     6   ar
     6     6     1   ar
     7     5     7    1
     8     7     8    1
     9     7     9    1
    10     7    10    1
    11     2    11    1
    12    11    12   ar
    13    12    13    1
    14    12    14   ar
    15    14    15    1
    16    14    16   ar
    17    16    17   ar
    18    17    18    1
    19    17    19   ar
    20    19    20    1
    21    19    11   ar
    22    16    21    1
    23    21    22    2
    24    21    23    2
    25    21    24    1
    26    24    25    1
    27    24    26    1
    28    24    27    1
    29     1    28    1
    30    28    29   ar
    31    29    30    1
    32    29    31   ar
    33    31    32    1
    34    31    33   ar
    35    33    34   ar
    36    34    35    1
    37    34    36   ar
    38    36    37    1
    39    36    28   ar
    40    33    38    1
    41    38    39    1
    42    39    40    1
    43    39    41    1
    44    39    42    1
