@<TRIPOS>MOLECULE
3_17
 44 46 0 0 0
SMALL
USER_CHARGES
****
From 3DB ct
@<TRIPOS>ATOM
      1 C          26.4070   22.1300   16.4600 C.ar    1  LIG1        0.3238
      2 N          25.4700   21.4600   17.2560 N.ar    1  LIG1       -0.1541
      3 C          26.1980   20.8860   18.2820 C.ar    1  LIG1       -0.2083
      4 H          25.7390   20.2790   19.0510 H       1  LIG1        0.2962
      5 C          27.5000   21.3250   18.1620 C.ar    1  LIG1       -0.2467
      6 N          27.6050   22.1150   17.0310 N.ar    1  LIG1       -0.4571
      7 C          28.6670   21.0450   19.0630 C.3     1  LIG1        1.5084
      8 F          28.3510   20.2100   20.0960 F       1  LIG1       -0.4756
      9 F          29.1680   22.1810   19.6300 F       1  LIG1       -0.4380
     10 F          29.7050   20.4560   18.4000 F       1  LIG1       -0.4434
     11 C          24.0480   21.3750   17.1210 C.ar    1  LIG1        0.3479
     12 C          23.3440   22.2590   16.2910 C.ar    1  LIG1       -0.3636
     13 H          23.8370   23.0610   15.7480 H       1  LIG1        0.2248
     14 C          21.9520   22.1710   16.1780 C.ar    1  LIG1        0.0551
     15 H          21.4250   22.8680   15.5290 H       1  LIG1        0.1922
     16 C          21.2560   21.2080   16.9100 C.ar    1  LIG1       -0.5362
     17 C          21.9400   20.3260   17.7450 C.ar    1  LIG1        0.0175
     18 H          21.4070   19.5660   18.3130 H       1  LIG1        0.1985
     19 C          23.3320   20.4150   17.8570 C.ar    1  LIG1       -0.2949
     20 H          23.8320   19.6970   18.5040 H       1  LIG1        0.2062
     21 S          19.4890   21.0850   16.7480 S.O2    1  LIG1        2.1842
     22 O          18.9610   22.4300   16.5410 O.2     1  LIG1       -0.9582
     23 O          18.9890   20.3100   17.8790 O.2     1  LIG1       -0.9592
     24 C          19.2670   20.1450   15.2610 C.3     1  LIG1       -0.7295
     25 H          18.1950   20.0270   15.0920 H       1  LIG1        0.2459
     26 H          19.7340   19.1660   15.3860 H       1  LIG1        0.1948
     27 H          19.7180   20.6870   14.4270 H       1  LIG1        0.1980
     28 C          26.1810   22.7070   15.1290 C.ar    1  LIG1        0.1201
     29 C          26.4420   24.0670   14.9080 C.ar    1  LIG1       -0.2751
     30 H          26.7940   24.6960   15.7250 H       1  LIG1        0.2253
     31 C          26.2530   24.6330   13.6430 C.ar    1  LIG1        0.0568
     32 H          26.4580   25.6920   13.4950 H       1  LIG1        0.1704
     33 C          25.8060   23.8330   12.5900 C.ar    1  LIG1       -0.5216
     34 C          25.5690   22.4700   12.7850 C.ar    1  LIG1       -0.0477
     35 H          25.2380   21.8350   11.9660 H       1  LIG1        0.1944
     36 C          25.7600   21.9100   14.0520 C.ar    1  LIG1       -0.1645
     37 H          25.5820   20.8450   14.1890 H       1  LIG1        0.1531
     38 S          25.5850   24.5470   10.9750 S.O2    1  LIG1        2.1884
     39 O          25.3720   25.9810   11.1420 O.2     1  LIG1       -0.9688
     40 O          24.5650   23.7700   10.2780 O.2     1  LIG1       -0.9730
     41 C          27.1510   24.2870   10.1840 C.3     1  LIG1       -0.6970
     42 H          27.0960   24.7080    9.1780 H       1  LIG1        0.2354
     43 H          27.3480   23.2150   10.1280 H       1  LIG1        0.1876
     44 H          27.9270   24.7950   10.7580 H       1  LIG1        0.1874
@<TRIPOS>BOND
     1     1     2   ar
     2     2     3   ar
     3     3     4    1
     4     3     5   ar
     5     5     6   ar
     6     6     1   ar
     7     5     7    1
     8     7     8    1
     9     7     9    1
    10     7    10    1
    11     2    11    1
    12    11    12   ar
    13    12    13    1
    14    12    14   ar
    15    14    15    1
    16    14    16   ar
    17    16    17   ar
    18    17    18    1
    19    17    19   ar
    20    19    20    1
    21    19    11   ar
    22    16    21    1
    23    21    22    2
    24    21    23    2
    25    21    24    1
    26    24    25    1
    27    24    26    1
    28    24    27    1
    29     1    28    1
    30    28    29   ar
    31    29    30    1
    32    29    31   ar
    33    31    32    1
    34    31    33   ar
    35    33    34   ar
    36    34    35    1
    37    34    36   ar
    38    36    37    1
    39    36    28   ar
    40    33    38    1
    41    38    39    2
    42    38    40    2
    43    38    41    1
    44    41    42    1
    45    41    43    1
    46    41    44    1
