@<TRIPOS>MOLECULE
3_18
 37 39 0 0 0
SMALL
USER_CHARGES
****
From 3DB ct
@<TRIPOS>ATOM
      1 C          26.4070   22.1300   16.4600 C.ar    1  LIG1        0.3023
      2 N          25.4700   21.4600   17.2570 N.ar    1  LIG1       -0.1706
      3 C          26.2000   20.8840   18.2810 C.ar    1  LIG1       -0.2260
      4 H          25.7420   20.2770   19.0500 H       1  LIG1        0.2883
      5 C          27.5020   21.3230   18.1600 C.ar    1  LIG1       -0.2124
      6 N          27.6050   22.1150   17.0290 N.ar    1  LIG1       -0.4743
      7 C          28.6710   21.0400   19.0580 C.3     1  LIG1        1.4812
      8 F          28.3600   20.1900   20.0800 F       1  LIG1       -0.4719
      9 F          29.1630   22.1730   19.6390 F       1  LIG1       -0.4338
     10 F          29.7130   20.4670   18.3880 F       1  LIG1       -0.4373
     11 C          24.0490   21.3740   17.1220 C.ar    1  LIG1        0.4414
     12 C          23.3440   22.2590   16.2930 C.ar    1  LIG1       -0.4432
     13 H          23.8370   23.0610   15.7490 H       1  LIG1        0.2343
     14 C          21.9510   22.1710   16.1810 C.ar    1  LIG1        0.1459
     15 H          21.4200   22.8680   15.5360 H       1  LIG1        0.1849
     16 C          21.2540   21.2070   16.9120 C.ar    1  LIG1       -0.6432
     17 C          21.9400   20.3260   17.7480 C.ar    1  LIG1        0.0834
     18 H          21.4070   19.5670   18.3170 H       1  LIG1        0.1922
     19 C          23.3320   20.4160   17.8590 C.ar    1  LIG1       -0.3372
     20 H          23.8320   19.6980   18.5060 H       1  LIG1        0.2130
     21 S          19.4950   21.0880   16.7400 S.O2    1  LIG1        2.4551
     22 O          18.9480   22.3990   16.4380 O.2     1  LIG1       -0.9897
     23 O          18.9650   20.3040   17.8410 O.2     1  LIG1       -0.9860
     24 N          19.3380   20.1660   15.3500 N.3     1  LIG1       -1.2963
     25 H          18.8610   20.6900   14.6120 H       1  LIG1        0.4842
     26 H          18.8620   19.2820   15.5460 H       1  LIG1        0.4851
     27 C          26.1800   22.7070   15.1310 C.ar    1  LIG1        0.2120
     28 C          26.4390   24.0670   14.9090 C.ar    1  LIG1       -0.3714
     29 H          26.7890   24.6990   15.7240 H       1  LIG1        0.2281
     30 C          26.2490   24.6300   13.6430 C.ar    1  LIG1        0.3140
     31 H          26.4480   25.6890   13.4910 H       1  LIG1        0.0688
     32 C          25.8110   23.8310   12.5890 C.ar    1  LIG1       -0.6580
     33 C          25.5670   22.4740   12.7880 C.ar    1  LIG1        0.2480
     34 H          25.2340   21.8440   11.9670 H       1  LIG1        0.0803
     35 C          25.7580   21.9120   14.0540 C.ar    1  LIG1       -0.2921
     36 H          25.5760   20.8460   14.1900 H       1  LIG1        0.1620
     37 CL         25.5780   24.5230   11.0300 Cl      1  LIG1        0.1387
@<TRIPOS>BOND
     1     1     2   ar
     2     2     3   ar
     3     3     4    1
     4     3     5   ar
     5     5     6   ar
     6     6     1   ar
     7     5     7    1
     8     7     8    1
     9     7     9    1
    10     7    10    1
    11     2    11    1
    12    11    12   ar
    13    12    13    1
    14    12    14   ar
    15    14    15    1
    16    14    16   ar
    17    16    17   ar
    18    17    18    1
    19    17    19   ar
    20    19    20    1
    21    19    11   ar
    22    16    21    1
    23    21    22    2
    24    21    23    2
    25    21    24    1
    26    24    25    1
    27    24    26    1
    28     1    27    1
    29    27    28   ar
    30    28    29    1
    31    28    30   ar
    32    30    31    1
    33    30    32   ar
    34    32    33   ar
    35    33    34    1
    36    33    35   ar
    37    35    36    1
    38    35    27   ar
    39    32    37    1
