@<TRIPOS>MOLECULE
3_20
 37 39 0 0 0
SMALL
USER_CHARGES
****
From 3DB ct
@<TRIPOS>ATOM
      1 C          26.4080   22.1300   16.4600 C.ar    1  LIG1        0.3911
      2 N          25.4700   21.4600   17.2560 N.ar    1  LIG1       -0.2072
      3 C          26.1990   20.8860   18.2820 C.ar    1  LIG1       -0.2181
      4 H          25.7410   20.2800   19.0510 H       1  LIG1        0.2859
      5 C          27.5020   21.3230   18.1600 C.ar    1  LIG1       -0.2333
      6 N          27.6060   22.1130   17.0290 N.ar    1  LIG1       -0.4792
      7 C          28.6710   21.0410   19.0590 C.3     1  LIG1        1.4978
      8 F          28.3610   20.1880   20.0790 F       1  LIG1       -0.4767
      9 F          29.1600   22.1730   19.6430 F       1  LIG1       -0.4386
     10 F          29.7150   20.4710   18.3880 F       1  LIG1       -0.4409
     11 C          24.0480   21.3740   17.1220 C.ar    1  LIG1        0.4527
     12 C          23.3430   22.2590   16.2930 C.ar    1  LIG1       -0.4264
     13 H          23.8350   23.0600   15.7480 H       1  LIG1        0.2320
     14 C          21.9500   22.1700   16.1810 C.ar    1  LIG1        0.1406
     15 H          21.4190   22.8670   15.5360 H       1  LIG1        0.1846
     16 C          21.2530   21.2060   16.9120 C.ar    1  LIG1       -0.6496
     17 C          21.9400   20.3250   17.7480 C.ar    1  LIG1        0.0815
     18 H          21.4070   19.5660   18.3170 H       1  LIG1        0.1922
     19 C          23.3320   20.4150   17.8590 C.ar    1  LIG1       -0.3400
     20 H          23.8320   19.6980   18.5060 H       1  LIG1        0.2132
     21 S          19.4940   21.0880   16.7410 S.O2    1  LIG1        2.4636
     22 O          18.9460   22.4010   16.4490 O.2     1  LIG1       -0.9942
     23 O          18.9650   20.2960   17.8370 O.2     1  LIG1       -0.9896
     24 N          19.3360   20.1770   15.3440 N.3     1  LIG1       -1.2970
     25 H          18.8600   20.7070   14.6100 H       1  LIG1        0.4832
     26 H          18.8600   19.2910   15.5340 H       1  LIG1        0.4835
     27 C          26.1800   22.7080   15.1300 C.ar    1  LIG1       -0.0239
     28 C          26.4410   24.0670   14.9080 C.ar    1  LIG1       -0.1604
     29 H          26.7910   24.6980   15.7240 H       1  LIG1        0.1892
     30 C          26.2490   24.6290   13.6440 C.ar    1  LIG1       -0.1265
     31 H          26.4470   25.6880   13.4840 H       1  LIG1        0.1508
     32 C          25.8100   23.8340   12.5870 C.ar    1  LIG1       -0.1018
     33 H          25.6620   24.2720   11.6010 H       1  LIG1        0.1494
     34 C          25.5680   22.4760   12.7900 C.ar    1  LIG1       -0.1894
     35 H          25.2340   21.8530   11.9620 H       1  LIG1        0.1613
     36 C          25.7590   21.9130   14.0540 C.ar    1  LIG1       -0.0891
     37 H          25.5760   20.8480   14.1890 H       1  LIG1        0.1293
@<TRIPOS>BOND
     1     1     2   ar
     2     2     3   ar
     3     3     4    1
     4     3     5   ar
     5     5     6   ar
     6     6     1   ar
     7     5     7    1
     8     7     8    1
     9     7     9    1
    10     7    10    1
    11     2    11    1
    12    11    12   ar
    13    12    13    1
    14    12    14   ar
    15    14    15    1
    16    14    16   ar
    17    16    17   ar
    18    17    18    1
    19    17    19   ar
    20    19    20    1
    21    19    11   ar
    22    16    21    1
    23    21    22    2
    24    21    23    2
    25    21    24    1
    26    24    25    1
    27    24    26    1
    28     1    27    1
    29    27    28   ar
    30    28    29    1
    31    28    30   ar
    32    30    31    1
    33    30    32   ar
    34    32    33    1
    35    32    34   ar
    36    34    35    1
    37    34    36   ar
    38    36    37    1
    39    36    27   ar
