@<TRIPOS>MOLECULE
3_22
 38 40 0 0 0
SMALL
USER_CHARGES
****
From 3DB ct
@<TRIPOS>ATOM
      1 C          26.4070   22.1310   16.4600 C.ar    1  LIG1        0.3289
      2 N          25.4700   21.4600   17.2550 N.ar    1  LIG1       -0.1425
      3 C          26.1990   20.8840   18.2800 C.ar    1  LIG1       -0.2309
      4 H          25.7410   20.2760   19.0480 H       1  LIG1        0.2919
      5 C          27.5010   21.3250   18.1600 C.ar    1  LIG1       -0.2174
      6 N          27.6040   22.1170   17.0300 N.ar    1  LIG1       -0.4605
      7 C          28.6690   21.0440   19.0610 C.3     1  LIG1        1.4729
      8 F          28.3550   20.2000   20.0870 F       1  LIG1       -0.4693
      9 F          29.1630   22.1790   19.6360 F       1  LIG1       -0.4300
     10 F          29.7100   20.4650   18.3940 F       1  LIG1       -0.4374
     11 C          24.0480   21.3740   17.1200 C.ar    1  LIG1        0.3762
     12 C          23.3440   22.2590   16.2910 C.ar    1  LIG1       -0.4206
     13 H          23.8370   23.0600   15.7470 H       1  LIG1        0.2430
     14 C          21.9510   22.1720   16.1780 C.ar    1  LIG1        0.0899
     15 H          21.4240   22.8690   15.5300 H       1  LIG1        0.1816
     16 C          21.2550   21.2090   16.9100 C.ar    1  LIG1       -0.5464
     17 C          21.9400   20.3260   17.7450 C.ar    1  LIG1        0.0180
     18 H          21.4070   19.5660   18.3130 H       1  LIG1        0.1944
     19 C          23.3320   20.4160   17.8570 C.ar    1  LIG1       -0.3014
     20 H          23.8320   19.6970   18.5030 H       1  LIG1        0.2076
     21 S          19.4880   21.0850   16.7490 S.O2    1  LIG1        2.1787
     22 O          18.9600   22.4310   16.5450 O.2     1  LIG1       -0.9596
     23 O          18.9890   20.3080   17.8800 O.2     1  LIG1       -0.9570
     24 C          19.2650   20.1480   15.2610 C.3     1  LIG1       -0.7242
     25 H          18.1920   20.0300   15.0920 H       1  LIG1        0.2442
     26 H          19.7310   19.1680   15.3840 H       1  LIG1        0.1939
     27 H          19.7150   20.6900   14.4280 H       1  LIG1        0.1901
     28 C          26.1810   22.7090   15.1300 C.ar    1  LIG1       -0.0967
     29 C          26.4420   24.0690   14.9120 C.ar    1  LIG1        0.2044
     30 H          26.7900   24.6930   15.7330 H       1  LIG1        0.1172
     31 C          26.2530   24.6240   13.6470 C.ar    1  LIG1       -0.5992
     32 C          25.8160   23.8350   12.5850 C.ar    1  LIG1        0.2629
     33 H          25.6680   24.2660   11.5980 H       1  LIG1        0.0810
     34 C          25.5740   22.4760   12.7870 C.ar    1  LIG1       -0.3351
     35 H          25.2420   21.8530   11.9590 H       1  LIG1        0.1923
     36 C          25.7620   21.9140   14.0520 C.ar    1  LIG1        0.0110
     37 H          25.5820   20.8490   14.1860 H       1  LIG1        0.1193
     38 CL         26.5630   26.2990   13.3930 Cl      1  LIG1        0.1286
@<TRIPOS>BOND
     1     1     2   ar
     2     2     3   ar
     3     3     4    1
     4     3     5   ar
     5     5     6   ar
     6     6     1   ar
     7     5     7    1
     8     7     8    1
     9     7     9    1
    10     7    10    1
    11     2    11    1
    12    11    12   ar
    13    12    13    1
    14    12    14   ar
    15    14    15    1
    16    14    16   ar
    17    16    17   ar
    18    17    18    1
    19    17    19   ar
    20    19    20    1
    21    19    11   ar
    22    16    21    1
    23    21    22    2
    24    21    23    2
    25    21    24    1
    26    24    25    1
    27    24    26    1
    28    24    27    1
    29     1    28    1
    30    28    29   ar
    31    29    30    1
    32    29    31   ar
    33    31    32   ar
    34    32    33    1
    35    32    34   ar
    36    34    35    1
    37    34    36   ar
    38    36    37    1
    39    36    28   ar
    40    31    38    1
