@<TRIPOS>MOLECULE
3_27
 42 44 0 0 0
SMALL
USER_CHARGES
****
From 3DB ct
@<TRIPOS>ATOM
      1 C          26.4080   22.1280   16.4590 C.ar    1  LIG1        0.4557
      2 N          25.4700   21.4600   17.2570 N.ar    1  LIG1       -0.1912
      3 C          26.1980   20.8870   18.2830 C.ar    1  LIG1       -0.2024
      4 H          25.7400   20.2820   19.0530 H       1  LIG1        0.2881
      5 C          27.5010   21.3260   18.1620 C.ar    1  LIG1       -0.2754
      6 N          27.6050   22.1140   17.0290 N.ar    1  LIG1       -0.4733
      7 C          28.6680   21.0470   19.0630 C.3     1  LIG1        1.5244
      8 F          28.3490   20.2220   20.1040 F       1  LIG1       -0.4806
      9 F          29.1760   22.1850   19.6200 F       1  LIG1       -0.4426
     10 F          29.7010   20.4460   18.4030 F       1  LIG1       -0.4464
     11 C          24.0480   21.3750   17.1220 C.ar    1  LIG1        0.3434
     12 C          23.3440   22.2590   16.2920 C.ar    1  LIG1       -0.3218
     13 H          23.8370   23.0600   15.7480 H       1  LIG1        0.2047
     14 C          21.9510   22.1710   16.1790 C.ar    1  LIG1        0.0379
     15 H          21.4250   22.8680   15.5300 H       1  LIG1        0.1931
     16 C          21.2550   21.2080   16.9100 C.ar    1  LIG1       -0.5380
     17 C          21.9400   20.3260   17.7460 C.ar    1  LIG1        0.0052
     18 H          21.4070   19.5660   18.3140 H       1  LIG1        0.1976
     19 C          23.3320   20.4160   17.8590 C.ar    1  LIG1       -0.2825
     20 H          23.8310   19.6980   18.5060 H       1  LIG1        0.2049
     21 S          19.4880   21.0840   16.7460 S.O2    1  LIG1        2.1885
     22 O          18.9610   22.4290   16.5380 O.2     1  LIG1       -0.9640
     23 O          18.9880   20.3100   17.8780 O.2     1  LIG1       -0.9610
     24 C          19.2680   20.1430   15.2600 C.3     1  LIG1       -0.7309
     25 H          18.1960   20.0260   15.0890 H       1  LIG1        0.2442
     26 H          19.7340   19.1640   15.3860 H       1  LIG1        0.1951
     27 H          19.7200   20.6840   14.4260 H       1  LIG1        0.1929
     28 C          26.1810   22.7040   15.1280 C.ar    1  LIG1       -0.0419
     29 C          26.4410   24.0640   14.9050 C.ar    1  LIG1       -0.3179
     30 H          26.7910   24.6870   15.7280 H       1  LIG1        0.1964
     31 C          26.2540   24.6370   13.6430 C.ar    1  LIG1        0.4966
     32 C          25.8130   23.8380   12.5880 C.ar    1  LIG1       -0.3569
     33 H          25.6530   24.2370   11.5900 H       1  LIG1        0.2069
     34 C          25.5710   22.4770   12.7930 C.ar    1  LIG1       -0.0594
     35 H          25.2360   21.8550   11.9640 H       1  LIG1        0.1577
     36 C          25.7600   21.9100   14.0540 C.ar    1  LIG1       -0.2071
     37 H          25.5770   20.8450   14.1870 H       1  LIG1        0.1469
     38 O          26.5350   25.9740   13.5730 O.3     1  LIG1       -0.4572
     39 C          26.9740   26.6020   14.7770 C.3     1  LIG1        0.0985
     40 H          27.1560   27.6570   14.5540 H       1  LIG1        0.0871
     41 H          27.9160   26.1660   15.1260 H       1  LIG1        0.0469
     42 H          26.2010   26.5520   15.5510 H       1  LIG1        0.0378
@<TRIPOS>BOND
     1     1     2   ar
     2     2     3   ar
     3     3     4    1
     4     3     5   ar
     5     5     6   ar
     6     6     1   ar
     7     5     7    1
     8     7     8    1
     9     7     9    1
    10     7    10    1
    11     2    11    1
    12    11    12   ar
    13    12    13    1
    14    12    14   ar
    15    14    15    1
    16    14    16   ar
    17    16    17   ar
    18    17    18    1
    19    17    19   ar
    20    19    20    1
    21    19    11   ar
    22    16    21    1
    23    21    22    2
    24    21    23    2
    25    21    24    1
    26    24    25    1
    27    24    26    1
    28    24    27    1
    29     1    28    1
    30    28    29   ar
    31    29    30    1
    32    29    31   ar
    33    31    32   ar
    34    32    33    1
    35    32    34   ar
    36    34    35    1
    37    34    36   ar
    38    36    37    1
    39    36    28   ar
    40    31    38    1
    41    38    39    1
    42    39    40    1
    43    39    41    1
    44    39    42    1
