@<TRIPOS>MOLECULE
3_32
 40 42 0 0 0
SMALL
USER_CHARGES
****
From 3DB ct
@<TRIPOS>ATOM
      1 C          26.4070   22.1290   16.4580 C.ar    1  LIG1        0.4717
      2 N          25.4690   21.4610   17.2560 N.ar    1  LIG1       -0.2194
      3 C          26.1970   20.8900   18.2840 C.ar    1  LIG1       -0.2057
      4 H          25.7380   20.2860   19.0540 H       1  LIG1        0.2902
      5 C          27.5000   21.3270   18.1620 C.ar    1  LIG1       -0.2813
      6 N          27.6050   22.1140   17.0290 N.ar    1  LIG1       -0.4764
      7 C          28.6670   21.0470   19.0630 C.3     1  LIG1        1.5350
      8 F          28.3560   20.1960   20.0840 F       1  LIG1       -0.4840
      9 F          29.1550   22.1810   19.6450 F       1  LIG1       -0.4454
     10 F          29.7120   20.4760   18.3950 F       1  LIG1       -0.4487
     11 C          24.0470   21.3740   17.1200 C.ar    1  LIG1        0.3831
     12 C          23.3410   22.2580   16.2910 C.ar    1  LIG1       -0.3475
     13 H          23.8340   23.0590   15.7470 H       1  LIG1        0.2229
     14 C          21.9490   22.1700   16.1790 C.ar    1  LIG1        0.0492
     15 H          21.4210   22.8670   15.5310 H       1  LIG1        0.1891
     16 C          21.2530   21.2070   16.9110 C.ar    1  LIG1       -0.5486
     17 C          21.9390   20.3240   17.7460 C.ar    1  LIG1        0.0126
     18 H          21.4070   19.5640   18.3150 H       1  LIG1        0.1960
     19 C          23.3310   20.4140   17.8570 C.ar    1  LIG1       -0.3033
     20 H          23.8310   19.6960   18.5030 H       1  LIG1        0.2077
     21 S          19.4860   21.0840   16.7520 S.O2    1  LIG1        2.1949
     22 O          18.9590   22.4280   16.5410 O.2     1  LIG1       -0.9669
     23 O          18.9870   20.3130   17.8860 O.2     1  LIG1       -0.9647
     24 C          19.2620   20.1400   15.2680 C.3     1  LIG1       -0.7251
     25 H          18.1900   20.0220   15.0990 H       1  LIG1        0.2402
     26 H          19.7270   19.1600   15.3950 H       1  LIG1        0.1931
     27 H          19.7130   20.6780   14.4320 H       1  LIG1        0.1918
     28 C          26.1810   22.7040   15.1270 C.ar    1  LIG1        0.0302
     29 C          26.4320   24.0680   14.9060 C.ar    1  LIG1       -0.5091
     30 H          26.7660   24.6890   15.7370 H       1  LIG1        0.2363
     31 C          26.2600   24.6420   13.6430 C.ar    1  LIG1        0.7705
     32 C          25.7960   23.8380   12.6000 C.ar    1  LIG1       -0.4552
     33 H          25.6190   24.2670   11.6150 H       1  LIG1        0.1989
     34 C          25.5620   22.4760   12.7960 C.ar    1  LIG1       -0.0598
     35 H          25.2190   21.8580   11.9680 H       1  LIG1        0.1600
     36 C          25.7640   21.9070   14.0530 C.ar    1  LIG1       -0.2484
     37 H          25.5870   20.8410   14.1870 H       1  LIG1        0.1455
     38 N          26.4370   26.0010   13.4570 N.pl3   1  LIG1       -1.2884
     39 H          26.4380   26.3960   12.5200 H       1  LIG1        0.5256
     40 H          26.8970   26.5630   14.1690 H       1  LIG1        0.5334
@<TRIPOS>BOND
     1     1     2   ar
     2     2     3   ar
     3     3     4    1
     4     3     5   ar
     5     5     6   ar
     6     6     1   ar
     7     5     7    1
     8     7     8    1
     9     7     9    1
    10     7    10    1
    11     2    11    1
    12    11    12   ar
    13    12    13    1
    14    12    14   ar
    15    14    15    1
    16    14    16   ar
    17    16    17   ar
    18    17    18    1
    19    17    19   ar
    20    19    20    1
    21    19    11   ar
    22    16    21    1
    23    21    22    2
    24    21    23    2
    25    21    24    1
    26    24    25    1
    27    24    26    1
    28    24    27    1
    29     1    28    1
    30    28    29   ar
    31    29    30    1
    32    29    31   ar
    33    31    32   ar
    34    32    33    1
    35    32    34   ar
    36    34    35    1
    37    34    36   ar
    38    36    37    1
    39    36    28   ar
    40    31    38    1
    41    38    39    1
    42    38    40    1
