@<TRIPOS>MOLECULE
3_38
 38 40 0 0 0
SMALL
USER_CHARGES
****
From 3DB ct
@<TRIPOS>ATOM
      1 C          26.4210   22.1290   16.4660 C.ar    1  LIG1        0.0332
      2 N          25.4730   21.4800   17.2680 N.ar    1  LIG1       -0.0320
      3 C          26.1960   20.9030   18.2980 C.ar    1  LIG1       -0.2372
      4 H          25.7270   20.3290   19.0850 H       1  LIG1        0.2925
      5 C          27.5150   21.2740   18.1420 C.ar    1  LIG1       -0.1780
      6 N          27.6340   22.0370   16.9960 N.ar    1  LIG1       -0.4636
      7 C          28.6880   20.9480   19.0200 C.3     1  LIG1        1.4877
      8 F          28.3430   20.2030   20.1110 F       1  LIG1       -0.4798
      9 F          29.3020   22.0680   19.5020 F       1  LIG1       -0.4356
     10 F          29.6480   20.2360   18.3600 F       1  LIG1       -0.4383
     11 C          24.0510   21.3940   17.1240 C.ar    1  LIG1        0.2210
     12 C          23.3430   22.2690   16.2880 C.ar    1  LIG1       -0.3155
     13 H          23.8260   23.0740   15.7440 H       1  LIG1        0.1958
     14 C          21.9510   22.1720   16.1680 C.ar    1  LIG1        0.0754
     15 H          21.4240   22.8640   15.5140 H       1  LIG1        0.1810
     16 C          21.2560   21.2060   16.8960 C.ar    1  LIG1       -0.5433
     17 C          21.9420   20.3310   17.7360 C.ar    1  LIG1       -0.0045
     18 H          21.4120   19.5670   18.3030 H       1  LIG1        0.1955
     19 C          23.3330   20.4300   17.8550 C.ar    1  LIG1       -0.2143
     20 H          23.8310   19.7130   18.5050 H       1  LIG1        0.1829
     21 S          19.4910   21.0720   16.7240 S.O2    1  LIG1        2.1743
     22 O          18.9580   22.4120   16.4960 O.2     1  LIG1       -0.9586
     23 O          18.9880   20.3090   17.8620 O.2     1  LIG1       -0.9547
     24 C          19.2830   20.1130   15.2470 C.3     1  LIG1       -0.7321
     25 H          18.2130   19.9880   15.0720 H       1  LIG1        0.2472
     26 H          19.7520   19.1370   15.3880 H       1  LIG1        0.1952
     27 H          19.7380   20.6460   14.4100 H       1  LIG1        0.1903
     28 C          26.1860   22.7350   15.1510 C.ar    1  LIG1        0.7461
     29 C          26.4260   24.0960   14.8990 C.ar    1  LIG1       -0.8444
     30 C          26.2120   24.6270   13.6220 C.ar    1  LIG1        0.3539
     31 H          26.3880   25.6830   13.4270 H       1  LIG1        0.0580
     32 C          25.7670   23.8070   12.5860 C.ar    1  LIG1       -0.3146
     33 H          25.6020   24.2240   11.5940 H       1  LIG1        0.1895
     34 C          25.5360   22.4540   12.8200 C.ar    1  LIG1       -0.0149
     35 H          25.1920   21.8110   12.0110 H       1  LIG1        0.1523
     36 C          25.7480   21.9190   14.0930 C.ar    1  LIG1       -0.4154
     37 H          25.5710   20.8560   14.2530 H       1  LIG1        0.2050
     38 CL         26.9480   25.1840   16.1410 Cl      1  LIG1        0.1999
@<TRIPOS>BOND
     1     1     2   ar
     2     2     3   ar
     3     3     4    1
     4     3     5   ar
     5     5     6   ar
     6     6     1   ar
     7     5     7    1
     8     7     8    1
     9     7     9    1
    10     7    10    1
    11     2    11    1
    12    11    12   ar
    13    12    13    1
    14    12    14   ar
    15    14    15    1
    16    14    16   ar
    17    16    17   ar
    18    17    18    1
    19    17    19   ar
    20    19    20    1
    21    19    11   ar
    22    16    21    1
    23    21    22    2
    24    21    23    2
    25    21    24    1
    26    24    25    1
    27    24    26    1
    28    24    27    1
    29     1    28    1
    30    28    29   ar
    31    29    30   ar
    32    30    31    1
    33    30    32   ar
    34    32    33    1
    35    32    34   ar
    36    34    35    1
    37    34    36   ar
    38    36    37    1
    39    36    28   ar
    40    29    38    1
