@<TRIPOS>MOLECULE
3_40
 41 43 0 0 0
SMALL
USER_CHARGES
****
From 3DB ct
@<TRIPOS>ATOM
      1 C          26.4180   22.1310   16.4680 C.ar    1  LIG1        0.5439
      2 N          25.4740   21.4680   17.2620 N.ar    1  LIG1       -0.2143
      3 C          26.1990   20.8860   18.2880 C.ar    1  LIG1       -0.2019
      4 H          25.7350   20.2930   19.0630 H       1  LIG1        0.2926
      5 C          27.5110   21.2880   18.1510 C.ar    1  LIG1       -0.3078
      6 N          27.6250   22.0700   17.0160 N.ar    1  LIG1       -0.4695
      7 C          28.6820   20.9760   19.0370 C.3     1  LIG1        1.5489
      8 F          28.3300   20.2660   20.1490 F       1  LIG1       -0.4857
      9 F          29.3070   22.1030   19.4850 F       1  LIG1       -0.4459
     10 F          29.6330   20.2360   18.3950 F       1  LIG1       -0.4504
     11 C          24.0520   21.3830   17.1210 C.ar    1  LIG1        0.3487
     12 C          23.3470   22.2640   16.2870 C.ar    1  LIG1       -0.3221
     13 H          23.8360   23.0650   15.7420 H       1  LIG1        0.2111
     14 C          21.9550   22.1730   16.1690 C.ar    1  LIG1        0.0353
     15 H          21.4300   22.8690   15.5180 H       1  LIG1        0.1917
     16 C          21.2570   21.2100   16.8980 C.ar    1  LIG1       -0.5331
     17 C          21.9410   20.3290   17.7360 C.ar    1  LIG1       -0.0035
     18 H          21.4080   19.5680   18.3020 H       1  LIG1        0.1991
     19 C          23.3320   20.4220   17.8530 C.ar    1  LIG1       -0.2821
     20 H          23.8290   19.7030   18.5010 H       1  LIG1        0.2035
     21 S          19.4910   21.0840   16.7310 S.O2    1  LIG1        2.1919
     22 O          18.9640   22.4260   16.5030 O.2     1  LIG1       -0.9650
     23 O          18.9860   20.3250   17.8710 O.2     1  LIG1       -0.9631
     24 C          19.2760   20.1230   15.2570 C.3     1  LIG1       -0.7278
     25 H          18.2040   20.0030   15.0850 H       1  LIG1        0.2426
     26 H          19.7410   19.1460   15.3980 H       1  LIG1        0.1942
     27 H          19.7290   20.6530   14.4180 H       1  LIG1        0.1913
     28 C          26.1840   22.7350   15.1480 C.ar    1  LIG1       -0.3032
     29 C          26.4250   24.1050   14.9080 C.ar    1  LIG1        0.2449
     30 C          26.2150   24.6220   13.6180 C.ar    1  LIG1       -0.2557
     31 H          26.3960   25.6760   13.4110 H       1  LIG1        0.1787
     32 C          25.7700   23.7990   12.5820 C.ar    1  LIG1       -0.0693
     33 H          25.6100   24.2150   11.5890 H       1  LIG1        0.1503
     34 C          25.5400   22.4480   12.8160 C.ar    1  LIG1       -0.2294
     35 H          25.2000   21.8040   12.0080 H       1  LIG1        0.1680
     36 C          25.7510   21.9170   14.0890 C.ar    1  LIG1       -0.0236
     37 H          25.5770   20.8530   14.2500 H       1  LIG1        0.1266
     38 C          26.9130   25.0270   15.9930 C.3     1  LIG1       -0.3035
     39 H          27.9510   24.7930   16.2490 H       1  LIG1        0.1228
     40 H          26.2860   24.9400   16.8860 H       1  LIG1        0.0810
     41 H          26.8740   26.0750   15.6750 H       1  LIG1        0.0894
@<TRIPOS>BOND
     1     1     2   ar
     2     2     3   ar
     3     3     4    1
     4     3     5   ar
     5     5     6   ar
     6     6     1   ar
     7     5     7    1
     8     7     8    1
     9     7     9    1
    10     7    10    1
    11     2    11    1
    12    11    12   ar
    13    12    13    1
    14    12    14   ar
    15    14    15    1
    16    14    16   ar
    17    16    17   ar
    18    17    18    1
    19    17    19   ar
    20    19    20    1
    21    19    11   ar
    22    16    21    1
    23    21    22    2
    24    21    23    2
    25    21    24    1
    26    24    25    1
    27    24    26    1
    28    24    27    1
    29     1    28    1
    30    28    29   ar
    31    29    30   ar
    32    30    31    1
    33    30    32   ar
    34    32    33    1
    35    32    34   ar
    36    34    35    1
    37    34    36   ar
    38    36    37    1
    39    36    28   ar
    40    29    38    1
    41    38    39    1
    42    38    40    1
    43    38    41    1
