@<TRIPOS>MOLECULE
3_42
 37 39 0 0 0
SMALL
USER_CHARGES
****
From 3DB ct
@<TRIPOS>ATOM
      1 C          26.4130   22.1310   16.4620 C.ar    1  LIG1        0.6154
      2 N          25.4720   21.4700   17.2620 N.ar    1  LIG1       -0.2977
      3 C          26.2000   20.8940   18.2880 C.ar    1  LIG1       -0.1799
      4 H          25.7370   20.3000   19.0650 H       1  LIG1        0.2905
      5 C          27.5100   21.3030   18.1510 C.ar    1  LIG1       -0.2906
      6 N          27.6190   22.0830   17.0140 N.ar    1  LIG1       -0.4728
      7 C          28.6810   21.0000   19.0400 C.3     1  LIG1        1.5340
      8 F          28.3660   20.1510   20.0610 F       1  LIG1       -0.4839
      9 F          29.1940   22.1240   19.6210 F       1  LIG1       -0.4426
     10 F          29.7100   20.4150   18.3600 F       1  LIG1       -0.4447
     11 C          24.0500   21.3840   17.1240 C.ar    1  LIG1        0.4476
     12 C          23.3450   22.2650   16.2920 C.ar    1  LIG1       -0.3796
     13 H          23.8320   23.0690   15.7490 H       1  LIG1        0.2105
     14 C          21.9520   22.1720   16.1760 C.ar    1  LIG1        0.1337
     15 H          21.4200   22.8660   15.5290 H       1  LIG1        0.1849
     16 C          21.2550   21.2060   16.9050 C.ar    1  LIG1       -0.6560
     17 C          21.9420   20.3280   17.7440 C.ar    1  LIG1        0.0846
     18 H          21.4100   19.5680   18.3120 H       1  LIG1        0.1919
     19 C          23.3340   20.4240   17.8590 C.ar    1  LIG1       -0.3258
     20 H          23.8330   19.7070   18.5080 H       1  LIG1        0.2070
     21 S          19.4970   21.0820   16.7270 S.O2    1  LIG1        2.4609
     22 O          18.9460   22.3930   16.4310 O.2     1  LIG1       -0.9919
     23 O          18.9670   20.2890   17.8220 O.2     1  LIG1       -0.9868
     24 N          19.3480   20.1680   15.3310 N.3     1  LIG1       -1.3012
     25 H          18.8740   20.6960   14.5940 H       1  LIG1        0.4848
     26 H          18.8720   19.2820   15.5200 H       1  LIG1        0.4849
     27 C          26.1790   22.7110   15.1380 C.ar    1  LIG1       -0.4713
     28 C          26.4300   24.0670   14.9020 C.ar    1  LIG1        0.6508
     29 C          26.2330   24.6290   13.6420 C.ar    1  LIG1       -0.4000
     30 H          26.4260   25.6870   13.4860 H       1  LIG1        0.2256
     31 C          25.7880   23.8300   12.5900 C.ar    1  LIG1        0.0166
     32 H          25.6330   24.2630   11.6040 H       1  LIG1        0.1555
     33 C          25.5480   22.4720   12.8030 C.ar    1  LIG1       -0.2970
     34 H          25.2070   21.8450   11.9800 H       1  LIG1        0.1834
     35 C          25.7470   21.9130   14.0680 C.ar    1  LIG1        0.0839
     36 H          25.5640   20.8480   14.2100 H       1  LIG1        0.1337
     37 F          26.8490   24.8640   15.8980 F       1  LIG1       -0.3582
@<TRIPOS>BOND
     1     1     2   ar
     2     2     3   ar
     3     3     4    1
     4     3     5   ar
     5     5     6   ar
     6     6     1   ar
     7     5     7    1
     8     7     8    1
     9     7     9    1
    10     7    10    1
    11     2    11    1
    12    11    12   ar
    13    12    13    1
    14    12    14   ar
    15    14    15    1
    16    14    16   ar
    17    16    17   ar
    18    17    18    1
    19    17    19   ar
    20    19    20    1
    21    19    11   ar
    22    16    21    1
    23    21    22    2
    24    21    23    2
    25    21    24    1
    26    24    25    1
    27    24    26    1
    28     1    27    1
    29    27    28   ar
    30    28    29   ar
    31    29    30    1
    32    29    31   ar
    33    31    32    1
    34    31    33   ar
    35    33    34    1
    36    33    35   ar
    37    35    36    1
    38    35    27   ar
    39    28    37    1
