@<TRIPOS>MOLECULE
3_43
 40 42 0 0 0
SMALL
USER_CHARGES
****
From 3DB ct
@<TRIPOS>ATOM
      1 C          26.4180   22.1300   16.4670 C.ar    1  LIG1        0.5801
      2 N          25.4740   21.4680   17.2630 N.ar    1  LIG1       -0.2710
      3 C          26.1990   20.8870   18.2880 C.ar    1  LIG1       -0.1915
      4 H          25.7350   20.2950   19.0650 H       1  LIG1        0.2885
      5 C          27.5120   21.2880   18.1500 C.ar    1  LIG1       -0.3043
      6 N          27.6240   22.0690   17.0150 N.ar    1  LIG1       -0.4787
      7 C          28.6830   20.9750   19.0340 C.3     1  LIG1        1.5535
      8 F          28.3300   20.2730   20.1510 F       1  LIG1       -0.4876
      9 F          29.3160   22.1010   19.4750 F       1  LIG1       -0.4471
     10 F          29.6280   20.2260   18.3950 F       1  LIG1       -0.4516
     11 C          24.0510   21.3830   17.1210 C.ar    1  LIG1        0.4448
     12 C          23.3460   22.2630   16.2880 C.ar    1  LIG1       -0.3784
     13 H          23.8340   23.0650   15.7430 H       1  LIG1        0.2161
     14 C          21.9540   22.1720   16.1730 C.ar    1  LIG1        0.1187
     15 H          21.4240   22.8680   15.5250 H       1  LIG1        0.1888
     16 C          21.2550   21.2080   16.9010 C.ar    1  LIG1       -0.6453
     17 C          21.9410   20.3290   17.7390 C.ar    1  LIG1        0.0781
     18 H          21.4080   19.5690   18.3070 H       1  LIG1        0.1931
     19 C          23.3330   20.4220   17.8540 C.ar    1  LIG1       -0.3369
     20 H          23.8300   19.7030   18.5030 H       1  LIG1        0.2123
     21 S          19.4970   21.0860   16.7260 S.O2    1  LIG1        2.4658
     22 O          18.9470   22.3980   16.4310 O.2     1  LIG1       -0.9947
     23 O          18.9660   20.2940   17.8210 O.2     1  LIG1       -0.9902
     24 N          19.3460   20.1710   15.3310 N.3     1  LIG1       -1.2987
     25 H          18.8690   20.6980   14.5950 H       1  LIG1        0.4838
     26 H          18.8730   19.2840   15.5210 H       1  LIG1        0.4835
     27 C          26.1830   22.7350   15.1480 C.ar    1  LIG1       -0.3293
     28 C          26.4230   24.1050   14.9080 C.ar    1  LIG1        0.2536
     29 C          26.2140   24.6220   13.6190 C.ar    1  LIG1       -0.2601
     30 H          26.3960   25.6770   13.4120 H       1  LIG1        0.1784
     31 C          25.7710   23.8000   12.5820 C.ar    1  LIG1       -0.0671
     32 H          25.6110   24.2160   11.5890 H       1  LIG1        0.1497
     33 C          25.5400   22.4480   12.8160 C.ar    1  LIG1       -0.2265
     34 H          25.2010   21.8050   12.0060 H       1  LIG1        0.1670
     35 C          25.7500   21.9170   14.0890 C.ar    1  LIG1       -0.0092
     36 H          25.5760   20.8530   14.2490 H       1  LIG1        0.1262
     37 C          26.9100   25.0270   15.9950 C.3     1  LIG1       -0.3069
     38 H          27.9480   24.7940   16.2520 H       1  LIG1        0.1233
     39 H          26.2820   24.9380   16.8870 H       1  LIG1        0.0804
     40 H          26.8700   26.0740   15.6770 H       1  LIG1        0.0894
@<TRIPOS>BOND
     1     1     2   ar
     2     2     3   ar
     3     3     4    1
     4     3     5   ar
     5     5     6   ar
     6     6     1   ar
     7     5     7    1
     8     7     8    1
     9     7     9    1
    10     7    10    1
    11     2    11    1
    12    11    12   ar
    13    12    13    1
    14    12    14   ar
    15    14    15    1
    16    14    16   ar
    17    16    17   ar
    18    17    18    1
    19    17    19   ar
    20    19    20    1
    21    19    11   ar
    22    16    21    1
    23    21    22    2
    24    21    23    2
    25    21    24    1
    26    24    25    1
    27    24    26    1
    28     1    27    1
    29    27    28   ar
    30    28    29   ar
    31    29    30    1
    32    29    31   ar
    33    31    32    1
    34    31    33   ar
    35    33    34    1
    36    33    35   ar
    37    35    36    1
    38    35    27   ar
    39    28    37    1
    40    37    38    1
    41    37    39    1
    42    37    40    1
