@<TRIPOS>MOLECULE
3_44
 42 44 0 0 0
SMALL
USER_CHARGES
****
From 3DB ct
@<TRIPOS>ATOM
      1 C          26.4060   22.1310   16.4600 C.ar    1  LIG1        0.5505
      2 N          25.4690   21.4590   17.2560 N.ar    1  LIG1       -0.2667
      3 C          26.1990   20.8830   18.2790 C.ar    1  LIG1       -0.1666
      4 H          25.7420   20.2730   19.0460 H       1  LIG1        0.2877
      5 C          27.5000   21.3260   18.1600 C.ar    1  LIG1       -0.3144
      6 N          27.6030   22.1190   17.0310 N.ar    1  LIG1       -0.4605
      7 C          28.6680   21.0470   19.0610 C.3     1  LIG1        1.5376
      8 F          28.3550   20.2060   20.0900 F       1  LIG1       -0.4817
      9 F          29.1640   22.1830   19.6320 F       1  LIG1       -0.4430
     10 F          29.7080   20.4640   18.3950 F       1  LIG1       -0.4468
     11 C          24.0480   21.3740   17.1210 C.ar    1  LIG1        0.3878
     12 C          23.3440   22.2590   16.2910 C.ar    1  LIG1       -0.3346
     13 H          23.8380   23.0600   15.7480 H       1  LIG1        0.2089
     14 C          21.9520   22.1720   16.1780 C.ar    1  LIG1        0.0437
     15 H          21.4250   22.8690   15.5300 H       1  LIG1        0.1937
     16 C          21.2550   21.2090   16.9100 C.ar    1  LIG1       -0.5463
     17 C          21.9400   20.3260   17.7460 C.ar    1  LIG1        0.0148
     18 H          21.4070   19.5660   18.3140 H       1  LIG1        0.1969
     19 C          23.3320   20.4160   17.8580 C.ar    1  LIG1       -0.3053
     20 H          23.8320   19.6980   18.5050 H       1  LIG1        0.2091
     21 S          19.4890   21.0860   16.7490 S.O2    1  LIG1        2.1936
     22 O          18.9610   22.4310   16.5410 O.2     1  LIG1       -0.9638
     23 O          18.9890   20.3120   17.8810 O.2     1  LIG1       -0.9617
     24 C          19.2660   20.1450   15.2620 C.3     1  LIG1       -0.7284
     25 H          18.1940   20.0270   15.0940 H       1  LIG1        0.2434
     26 H          19.7320   19.1660   15.3880 H       1  LIG1        0.1944
     27 H          19.7160   20.6860   14.4280 H       1  LIG1        0.1930
     28 C          26.1800   22.7080   15.1300 C.ar    1  LIG1       -0.2620
     29 C          26.4400   24.0650   14.9100 C.ar    1  LIG1       -0.2744
     30 H          26.7870   24.7010   15.7200 H       1  LIG1        0.2639
     31 C          26.2530   24.6230   13.6450 C.ar    1  LIG1        0.3835
     32 C          25.8180   23.8450   12.5690 C.ar    1  LIG1        0.3203
     33 C          25.5780   22.4850   12.7850 C.ar    1  LIG1       -0.4217
     34 H          25.2470   21.8520   11.9630 H       1  LIG1        0.2335
     35 C          25.7640   21.9180   14.0510 C.ar    1  LIG1        0.0648
     36 H          25.5830   20.8510   14.1810 H       1  LIG1        0.1283
     37 O          25.5930   24.2570   11.2830 O.3     1  LIG1       -0.3897
     38 C          25.8170   25.6340   10.9920 C.3     1  LIG1        0.0530
     39 H          25.5780   25.7920    9.9350 H       1  LIG1        0.0885
     40 H          26.8690   25.9000   11.1370 H       1  LIG1        0.0739
     41 H          25.1530   26.2750   11.5810 H       1  LIG1        0.0671
     42 F          26.5120   25.9320   13.5030 F       1  LIG1       -0.3647
@<TRIPOS>BOND
     1     1     2   ar
     2     2     3   ar
     3     3     4    1
     4     3     5   ar
     5     5     6   ar
     6     6     1   ar
     7     5     7    1
     8     7     8    1
     9     7     9    1
    10     7    10    1
    11     2    11    1
    12    11    12   ar
    13    12    13    1
    14    12    14   ar
    15    14    15    1
    16    14    16   ar
    17    16    17   ar
    18    17    18    1
    19    17    19   ar
    20    19    20    1
    21    19    11   ar
    22    16    21    1
    23    21    22    2
    24    21    23    2
    25    21    24    1
    26    24    25    1
    27    24    26    1
    28    24    27    1
    29     1    28    1
    30    28    29   ar
    31    29    30    1
    32    29    31   ar
    33    31    32   ar
    34    32    33   ar
    35    33    34    1
    36    33    35   ar
    37    35    36    1
    38    35    28   ar
    39    32    37    1
    40    37    38    1
    41    38    39    1
    42    38    40    1
    43    38    41    1
    44    31    42    1
