@<TRIPOS>MOLECULE
3_47
 46 48 0 0 0
SMALL
USER_CHARGES
****
From 3DB ct
@<TRIPOS>ATOM
      1 C          26.4060   22.1300   16.4600 C.ar    1  LIG1        0.4909
      2 N          25.4690   21.4590   17.2560 N.ar    1  LIG1       -0.2571
      3 C          26.1990   20.8820   18.2800 C.ar    1  LIG1       -0.1894
      4 H          25.7420   20.2730   19.0470 H       1  LIG1        0.2880
      5 C          27.5010   21.3220   18.1590 C.ar    1  LIG1       -0.2671
      6 N          27.6040   22.1160   17.0300 N.ar    1  LIG1       -0.4732
      7 C          28.6700   21.0390   19.0580 C.3     1  LIG1        1.5149
      8 F          28.3610   20.1830   20.0760 F       1  LIG1       -0.4792
      9 F          29.1580   22.1710   19.6440 F       1  LIG1       -0.4361
     10 F          29.7150   20.4720   18.3860 F       1  LIG1       -0.4467
     11 C          24.0480   21.3750   17.1220 C.ar    1  LIG1        0.4452
     12 C          23.3430   22.2590   16.2920 C.ar    1  LIG1       -0.4424
     13 H          23.8360   23.0600   15.7490 H       1  LIG1        0.2515
     14 C          21.9510   22.1710   16.1800 C.ar    1  LIG1        0.1009
     15 H          21.4240   22.8680   15.5310 H       1  LIG1        0.1813
     16 C          21.2540   21.2080   16.9110 C.ar    1  LIG1       -0.5567
     17 C          21.9390   20.3260   17.7470 C.ar    1  LIG1        0.0193
     18 H          21.4070   19.5660   18.3150 H       1  LIG1        0.1936
     19 C          23.3310   20.4160   17.8590 C.ar    1  LIG1       -0.3227
     20 H          23.8310   19.6980   18.5060 H       1  LIG1        0.2125
     21 S          19.4880   21.0850   16.7470 S.O2    1  LIG1        2.1838
     22 O          18.9610   22.4290   16.5320 O.2     1  LIG1       -0.9615
     23 O          18.9870   20.3170   17.8830 O.2     1  LIG1       -0.9588
     24 C          19.2660   20.1370   15.2660 C.3     1  LIG1       -0.7223
     25 H          18.1930   20.0220   15.0950 H       1  LIG1        0.2427
     26 H          19.7280   19.1570   15.3970 H       1  LIG1        0.1936
     27 H          19.7200   20.6720   14.4300 H       1  LIG1        0.1881
     28 C          26.1800   22.7090   15.1310 C.ar    1  LIG1       -0.2655
     29 C          26.4420   24.0640   14.9090 C.ar    1  LIG1        0.2427
     30 H          26.7970   24.6850   15.7290 H       1  LIG1        0.1195
     31 C          26.2530   24.6260   13.6400 C.ar    1  LIG1       -0.7694
     32 C          25.8090   23.8480   12.5470 C.ar    1  LIG1        1.0615
     33 C          25.5770   22.4830   12.7850 C.ar    1  LIG1       -0.5971
     34 H          25.2270   21.8320   11.9860 H       1  LIG1        0.2470
     35 C          25.7650   21.9190   14.0540 C.ar    1  LIG1        0.0637
     36 H          25.5810   20.8540   14.1850 H       1  LIG1        0.1250
     37 N          25.5910   24.4030   11.2800 N.pl3   1  LIG1       -0.8424
     38 C          26.4500   23.9760   10.1750 C.3     1  LIG1        0.0025
     39 H          26.3700   24.6850    9.3440 H       1  LIG1        0.1163
     40 H          26.1610   22.9870    9.8030 H       1  LIG1        0.0488
     41 H          27.5020   23.9520   10.4810 H       1  LIG1        0.0566
     42 C          24.1860   24.6530   10.9440 C.3     1  LIG1        0.0966
     43 H          24.1180   25.2760   10.0460 H       1  LIG1        0.0927
     44 H          23.6540   25.1770   11.7440 H       1  LIG1        0.0345
     45 H          23.6660   23.7090   10.7440 H       1  LIG1        0.0165
     46 CL         26.6460   26.3060   13.4530 Cl      1  LIG1        0.1573
@<TRIPOS>BOND
     1     1     2   ar
     2     2     3   ar
     3     3     4    1
     4     3     5   ar
     5     5     6   ar
     6     6     1   ar
     7     5     7    1
     8     7     8    1
     9     7     9    1
    10     7    10    1
    11     2    11    1
    12    11    12   ar
    13    12    13    1
    14    12    14   ar
    15    14    15    1
    16    14    16   ar
    17    16    17   ar
    18    17    18    1
    19    17    19   ar
    20    19    20    1
    21    19    11   ar
    22    16    21    1
    23    21    22    2
    24    21    23    2
    25    21    24    1
    26    24    25    1
    27    24    26    1
    28    24    27    1
    29     1    28    1
    30    28    29   ar
    31    29    30    1
    32    29    31   ar
    33    31    32   ar
    34    32    33   ar
    35    33    34    1
    36    33    35   ar
    37    35    36    1
    38    35    28   ar
    39    32    37    1
    40    37    38    1
    41    38    39    1
    42    38    40    1
    43    38    41    1
    44    37    42    1
    45    42    43    1
    46    42    44    1
    47    42    45    1
    48    31    46    1
