@<TRIPOS>MOLECULE
3_5
 38 40 0 0 0
SMALL
USER_CHARGES
****
From 3DB ct
@<TRIPOS>ATOM
      1 C          26.4090   22.1300   16.4600 C.ar    1  LIG1        0.1026
      2 N          25.4690   21.4610   17.2560 N.ar    1  LIG1       -0.1293
      3 C          26.1990   20.8890   18.2820 C.ar    1  LIG1       -0.5232
      4 H          25.7420   20.2840   19.0530 H       1  LIG1        0.3191
      5 C          27.4930   21.3300   18.1480 C.ar    1  LIG1        0.4292
      6 N          27.6070   22.1110   17.0310 N.ar    1  LIG1       -0.5433
      7 C          28.6610   21.0690   19.0180 C.3     1  LIG1       -0.3856
      8 H          28.9490   21.9820   19.5470 H       1  LIG1        0.1268
      9 H          29.5130   20.7320   18.4200 H       1  LIG1        0.1307
     10 H          28.4390   20.2970   19.7610 H       1  LIG1        0.0931
     11 C          24.0470   21.3750   17.1200 C.ar    1  LIG1        0.4545
     12 C          23.3420   22.2590   16.2910 C.ar    1  LIG1       -0.4288
     13 H          23.8350   23.0610   15.7470 H       1  LIG1        0.2329
     14 C          21.9500   22.1710   16.1780 C.ar    1  LIG1        0.0699
     15 H          21.4220   22.8680   15.5290 H       1  LIG1        0.1857
     16 C          21.2540   21.2080   16.9100 C.ar    1  LIG1       -0.5576
     17 C          21.9390   20.3260   17.7450 C.ar    1  LIG1        0.0250
     18 H          21.4070   19.5650   18.3130 H       1  LIG1        0.1911
     19 C          23.3310   20.4160   17.8570 C.ar    1  LIG1       -0.3378
     20 H          23.8320   19.6980   18.5040 H       1  LIG1        0.2116
     21 S          19.4870   21.0840   16.7490 S.O2    1  LIG1        2.1874
     22 O          18.9590   22.4290   16.5440 O.2     1  LIG1       -0.9658
     23 O          18.9880   20.3070   17.8800 O.2     1  LIG1       -0.9653
     24 C          19.2640   20.1460   15.2610 C.3     1  LIG1       -0.7297
     25 H          18.1920   20.0270   15.0930 H       1  LIG1        0.2417
     26 H          19.7310   19.1670   15.3840 H       1  LIG1        0.1940
     27 H          19.7130   20.6890   14.4280 H       1  LIG1        0.1913
     28 C          26.1830   22.7070   15.1300 C.ar    1  LIG1        0.3715
     29 C          26.4430   24.0680   14.9090 C.ar    1  LIG1       -0.4180
     30 H          26.7930   24.6980   15.7250 H       1  LIG1        0.2389
     31 C          26.2530   24.6320   13.6430 C.ar    1  LIG1        0.3093
     32 H          26.4520   25.6900   13.4920 H       1  LIG1        0.0699
     33 C          25.8140   23.8340   12.5890 C.ar    1  LIG1       -0.6684
     34 C          25.5700   22.4760   12.7870 C.ar    1  LIG1        0.2533
     35 H          25.2360   21.8480   11.9650 H       1  LIG1        0.0792
     36 C          25.7610   21.9130   14.0530 C.ar    1  LIG1       -0.3616
     37 H          25.5790   20.8480   14.1880 H       1  LIG1        0.1748
     38 CL         25.5790   24.5270   11.0310 Cl      1  LIG1        0.1309
@<TRIPOS>BOND
     1     1     2   ar
     2     2     3   ar
     3     3     4    1
     4     3     5   ar
     5     5     6   ar
     6     6     1   ar
     7     5     7    1
     8     7     8    1
     9     7     9    1
    10     7    10    1
    11     2    11    1
    12    11    12   ar
    13    12    13    1
    14    12    14   ar
    15    14    15    1
    16    14    16   ar
    17    16    17   ar
    18    17    18    1
    19    17    19   ar
    20    19    20    1
    21    19    11   ar
    22    16    21    1
    23    21    22    2
    24    21    23    2
    25    21    24    1
    26    24    25    1
    27    24    26    1
    28    24    27    1
    29     1    28    1
    30    28    29   ar
    31    29    30    1
    32    29    31   ar
    33    31    32    1
    34    31    33   ar
    35    33    34   ar
    36    34    35    1
    37    34    36   ar
    38    36    37    1
    39    36    28   ar
    40    33    38    1
