@<TRIPOS>MOLECULE
3_50
 41 43 0 0 0
SMALL
USER_CHARGES
****
From 3DB ct
@<TRIPOS>ATOM
      1 C          26.4070   22.1300   16.4590 C.ar    1  LIG1        0.4076
      2 N          25.4690   21.4590   17.2560 N.ar    1  LIG1       -0.2071
      3 C          26.1980   20.8850   18.2810 C.ar    1  LIG1       -0.2081
      4 H          25.7400   20.2770   19.0490 H       1  LIG1        0.2914
      5 C          27.5000   21.3260   18.1620 C.ar    1  LIG1       -0.2481
      6 N          27.6040   22.1170   17.0310 N.ar    1  LIG1       -0.4577
      7 C          28.6680   21.0470   19.0620 C.3     1  LIG1        1.4951
      8 F          28.3510   20.2150   20.0980 F       1  LIG1       -0.4737
      9 F          29.1710   22.1840   19.6250 F       1  LIG1       -0.4335
     10 F          29.7030   20.4540   18.3990 F       1  LIG1       -0.4419
     11 C          24.0480   21.3740   17.1200 C.ar    1  LIG1        0.4183
     12 C          23.3440   22.2580   16.2910 C.ar    1  LIG1       -0.4243
     13 H          23.8370   23.0590   15.7470 H       1  LIG1        0.2452
     14 C          21.9510   22.1710   16.1780 C.ar    1  LIG1        0.0866
     15 H          21.4240   22.8690   15.5300 H       1  LIG1        0.1825
     16 C          21.2550   21.2080   16.9100 C.ar    1  LIG1       -0.5522
     17 C          21.9400   20.3250   17.7450 C.ar    1  LIG1        0.0256
     18 H          21.4070   19.5650   18.3130 H       1  LIG1        0.1945
     19 C          23.3320   20.4150   17.8570 C.ar    1  LIG1       -0.3211
     20 H          23.8310   19.6970   18.5040 H       1  LIG1        0.2116
     21 S          19.4880   21.0860   16.7500 S.O2    1  LIG1        2.1830
     22 O          18.9600   22.4310   16.5450 O.2     1  LIG1       -0.9602
     23 O          18.9890   20.3100   17.8810 O.2     1  LIG1       -0.9582
     24 C          19.2640   20.1470   15.2630 C.3     1  LIG1       -0.7283
     25 H          18.1910   20.0290   15.0950 H       1  LIG1        0.2447
     26 H          19.7300   19.1680   15.3860 H       1  LIG1        0.1943
     27 H          19.7130   20.6890   14.4290 H       1  LIG1        0.1920
     28 C          26.1810   22.7070   15.1300 C.ar    1  LIG1       -0.1818
     29 C          26.4420   24.0650   14.9090 C.ar    1  LIG1        0.1970
     30 H          26.7900   24.6860   15.7330 H       1  LIG1        0.1213
     31 C          26.2540   24.6280   13.6430 C.ar    1  LIG1       -0.6508
     32 C          25.8130   23.8430   12.5680 C.ar    1  LIG1        0.5485
     33 C          25.5750   22.4780   12.7870 C.ar    1  LIG1       -0.4325
     34 H          25.2430   21.8370   11.9720 H       1  LIG1        0.2083
     35 C          25.7640   21.9150   14.0530 C.ar    1  LIG1        0.0410
     36 H          25.5830   20.8490   14.1860 H       1  LIG1        0.1233
     37 C          25.6020   24.4170   11.1950 C.3     1  LIG1       -0.4022
     38 H          24.8550   25.2170   11.2260 H       1  LIG1        0.1014
     39 H          25.2380   23.6580   10.4940 H       1  LIG1        0.1137
     40 H          26.5430   24.8080   10.7960 H       1  LIG1        0.1123
     41 CL         26.5850   26.3140   13.4520 Cl      1  LIG1        0.1422
@<TRIPOS>BOND
     1     1     2   ar
     2     2     3   ar
     3     3     4    1
     4     3     5   ar
     5     5     6   ar
     6     6     1   ar
     7     5     7    1
     8     7     8    1
     9     7     9    1
    10     7    10    1
    11     2    11    1
    12    11    12   ar
    13    12    13    1
    14    12    14   ar
    15    14    15    1
    16    14    16   ar
    17    16    17   ar
    18    17    18    1
    19    17    19   ar
    20    19    20    1
    21    19    11   ar
    22    16    21    1
    23    21    22    2
    24    21    23    2
    25    21    24    1
    26    24    25    1
    27    24    26    1
    28    24    27    1
    29     1    28    1
    30    28    29   ar
    31    29    30    1
    32    29    31   ar
    33    31    32   ar
    34    32    33   ar
    35    33    34    1
    36    33    35   ar
    37    35    36    1
    38    35    28   ar
    39    32    37    1
    40    37    38    1
    41    37    39    1
    42    37    40    1
    43    31    41    1
