@<TRIPOS>MOLECULE
3_52
 41 43 0 0 0
SMALL
USER_CHARGES
****
From 3DB ct
@<TRIPOS>ATOM
      1 C          26.4080   22.1290   16.4600 C.ar    1  LIG1        0.5325
      2 N          25.4700   21.4600   17.2570 N.ar    1  LIG1       -0.2507
      3 C          26.1990   20.8870   18.2840 C.ar    1  LIG1       -0.1755
      4 H          25.7400   20.2820   19.0540 H       1  LIG1        0.2883
      5 C          27.5010   21.3270   18.1630 C.ar    1  LIG1       -0.2996
      6 N          27.6050   22.1140   17.0300 N.ar    1  LIG1       -0.4710
      7 C          28.6690   21.0480   19.0640 C.3     1  LIG1        1.5356
      8 F          28.3560   20.2050   20.0910 F       1  LIG1       -0.4823
      9 F          29.1620   22.1840   19.6370 F       1  LIG1       -0.4438
     10 F          29.7100   20.4690   18.3980 F       1  LIG1       -0.4464
     11 C          24.0490   21.3740   17.1210 C.ar    1  LIG1        0.3706
     12 C          23.3450   22.2580   16.2910 C.ar    1  LIG1       -0.3275
     13 H          23.8380   23.0600   15.7480 H       1  LIG1        0.2046
     14 C          21.9520   22.1710   16.1770 C.ar    1  LIG1        0.0431
     15 H          21.4260   22.8680   15.5280 H       1  LIG1        0.1927
     16 C          21.2560   21.2080   16.9080 C.ar    1  LIG1       -0.5427
     17 C          21.9400   20.3250   17.7440 C.ar    1  LIG1        0.0085
     18 H          21.4070   19.5650   18.3110 H       1  LIG1        0.1983
     19 C          23.3320   20.4150   17.8560 C.ar    1  LIG1       -0.2947
     20 H          23.8310   19.6960   18.5030 H       1  LIG1        0.2079
     21 S          19.4890   21.0870   16.7480 S.O2    1  LIG1        2.1941
     22 O          18.9630   22.4320   16.5360 O.2     1  LIG1       -0.9640
     23 O          18.9880   20.3170   17.8830 O.2     1  LIG1       -0.9620
     24 C          19.2650   20.1410   15.2650 C.3     1  LIG1       -0.7243
     25 H          18.1920   20.0240   15.0970 H       1  LIG1        0.2426
     26 H          19.7300   19.1620   15.3930 H       1  LIG1        0.1931
     27 H          19.7150   20.6790   14.4290 H       1  LIG1        0.1910
     28 C          26.1800   22.7040   15.1300 C.ar    1  LIG1       -0.2520
     29 C          26.4370   24.0680   14.9090 C.ar    1  LIG1       -0.1246
     30 H          26.7790   24.6890   15.7370 H       1  LIG1        0.2174
     31 C          26.2530   24.6400   13.6420 C.ar    1  LIG1       -0.0116
     32 C          25.7990   23.8280   12.6000 C.ar    1  LIG1        0.5112
     33 C          25.5600   22.4710   12.7940 C.ar    1  LIG1       -0.4365
     34 H          25.2200   21.8580   11.9640 H       1  LIG1        0.2416
     35 C          25.7580   21.9070   14.0550 C.ar    1  LIG1        0.0155
     36 H          25.5790   20.8420   14.1910 H       1  LIG1        0.1425
     37 F          25.5940   24.3540   11.3840 F       1  LIG1       -0.3401
     38 C          26.4850   26.1040   13.4190 C.3     1  LIG1       -0.3152
     39 H          26.9390   26.2800   12.4390 H       1  LIG1        0.1157
     40 H          27.1680   26.5140   14.1710 H       1  LIG1        0.1078
     41 H          25.5360   26.6460   13.4770 H       1  LIG1        0.1096
@<TRIPOS>BOND
     1     1     2   ar
     2     2     3   ar
     3     3     4    1
     4     3     5   ar
     5     5     6   ar
     6     6     1   ar
     7     5     7    1
     8     7     8    1
     9     7     9    1
    10     7    10    1
    11     2    11    1
    12    11    12   ar
    13    12    13    1
    14    12    14   ar
    15    14    15    1
    16    14    16   ar
    17    16    17   ar
    18    17    18    1
    19    17    19   ar
    20    19    20    1
    21    19    11   ar
    22    16    21    1
    23    21    22    2
    24    21    23    2
    25    21    24    1
    26    24    25    1
    27    24    26    1
    28    24    27    1
    29     1    28    1
    30    28    29   ar
    31    29    30    1
    32    29    31   ar
    33    31    32   ar
    34    32    33   ar
    35    33    34    1
    36    33    35   ar
    37    35    36    1
    38    35    28   ar
    39    32    37    1
    40    31    38    1
    41    38    39    1
    42    38    40    1
    43    38    41    1
