@<TRIPOS>MOLECULE
3_55
 46 48 0 0 0
SMALL
USER_CHARGES
****
From 3DB ct
@<TRIPOS>ATOM
      1 C          26.4070   22.1260   16.4590 C.ar    1  LIG1        0.4568
      2 N          25.4700   21.4600   17.2580 N.ar    1  LIG1       -0.2050
      3 C          26.1980   20.8890   18.2850 C.ar    1  LIG1       -0.2026
      4 H          25.7390   20.2850   19.0560 H       1  LIG1        0.2931
      5 C          27.5010   21.3270   18.1630 C.ar    1  LIG1       -0.2820
      6 N          27.6050   22.1140   17.0290 N.ar    1  LIG1       -0.4700
      7 C          28.6680   21.0490   19.0650 C.3     1  LIG1        1.5359
      8 F          28.3770   20.1440   20.0450 F       1  LIG1       -0.4827
      9 F          29.1080   22.1740   19.7010 F       1  LIG1       -0.4447
     10 F          29.7400   20.5460   18.3860 F       1  LIG1       -0.4476
     11 C          24.0490   21.3750   17.1220 C.ar    1  LIG1        0.3821
     12 C          23.3450   22.2590   16.2920 C.ar    1  LIG1       -0.3695
     13 H          23.8380   23.0610   15.7490 H       1  LIG1        0.2205
     14 C          21.9520   22.1720   16.1780 C.ar    1  LIG1        0.0551
     15 H          21.4260   22.8690   15.5290 H       1  LIG1        0.1899
     16 C          21.2560   21.2080   16.9090 C.ar    1  LIG1       -0.5471
     17 C          21.9400   20.3260   17.7450 C.ar    1  LIG1        0.0268
     18 H          21.4070   19.5660   18.3130 H       1  LIG1        0.1953
     19 C          23.3320   20.4160   17.8590 C.ar    1  LIG1       -0.3078
     20 H          23.8310   19.6980   18.5060 H       1  LIG1        0.2084
     21 S          19.4890   21.0840   16.7460 S.O2    1  LIG1        2.1834
     22 O          18.9610   22.4290   16.5390 O.2     1  LIG1       -0.9606
     23 O          18.9890   20.3080   17.8770 O.2     1  LIG1       -0.9593
     24 C          19.2680   20.1440   15.2590 C.3     1  LIG1       -0.7256
     25 H          18.1960   20.0240   15.0900 H       1  LIG1        0.2440
     26 H          19.7360   19.1660   15.3840 H       1  LIG1        0.1944
     27 H          19.7180   20.6860   14.4260 H       1  LIG1        0.1911
     28 C          26.1810   22.6970   15.1260 C.ar    1  LIG1       -0.0195
     29 C          26.4420   24.0600   14.9000 C.ar    1  LIG1       -0.4823
     30 H          26.7750   24.6660   15.7420 H       1  LIG1        0.2520
     31 C          26.2570   24.6560   13.6390 C.ar    1  LIG1        1.0345
     32 C          25.8110   23.8230   12.5880 C.ar    1  LIG1       -0.7471
     33 C          25.5670   22.4610   12.7960 C.ar    1  LIG1        0.1472
     34 H          25.2390   21.8270   11.9750 H       1  LIG1        0.1100
     35 C          25.7560   21.8990   14.0580 C.ar    1  LIG1       -0.1965
     36 H          25.5750   20.8350   14.1950 H       1  LIG1        0.1502
     37 CL         25.6080   24.4270   10.9750 Cl      1  LIG1        0.1571
     38 N          26.4910   26.0260   13.4500 N.pl3   1  LIG1       -0.8613
     39 C          25.5810   26.9160   14.1750 C.3     1  LIG1       -0.1160
     40 H          25.6910   27.9440   13.8130 H       1  LIG1        0.1538
     41 H          25.8080   26.9070   15.2480 H       1  LIG1        0.0907
     42 H          24.5310   26.6370   14.0430 H       1  LIG1        0.0874
     43 C          27.8730   26.4840   13.3180 C.3     1  LIG1        0.1081
     44 H          27.8930   27.4920   12.8900 H       1  LIG1        0.0871
     45 H          28.4410   25.8330   12.6430 H       1  LIG1        0.0421
     46 H          28.3770   26.5210   14.2900 H       1  LIG1        0.0303
@<TRIPOS>BOND
     1     1     2   ar
     2     2     3   ar
     3     3     4    1
     4     3     5   ar
     5     5     6   ar
     6     6     1   ar
     7     5     7    1
     8     7     8    1
     9     7     9    1
    10     7    10    1
    11     2    11    1
    12    11    12   ar
    13    12    13    1
    14    12    14   ar
    15    14    15    1
    16    14    16   ar
    17    16    17   ar
    18    17    18    1
    19    17    19   ar
    20    19    20    1
    21    19    11   ar
    22    16    21    1
    23    21    22    2
    24    21    23    2
    25    21    24    1
    26    24    25    1
    27    24    26    1
    28    24    27    1
    29     1    28    1
    30    28    29   ar
    31    29    30    1
    32    29    31   ar
    33    31    32   ar
    34    32    33   ar
    35    33    34    1
    36    33    35   ar
    37    35    36    1
    38    35    28   ar
    39    32    37    1
    40    31    38    1
    41    38    39    1
    42    39    40    1
    43    39    41    1
    44    39    42    1
    45    38    43    1
    46    43    44    1
    47    43    45    1
    48    43    46    1
