@<TRIPOS>MOLECULE
3_56
 41 44 0 0 0
SMALL
USER_CHARGES
****
From 3DB ct
@<TRIPOS>ATOM
      1 C          26.4090   22.1360   16.4610 C.ar    1  LIG1        0.5274
      2 N          25.4720   21.4610   17.2550 N.ar    1  LIG1       -0.2622
      3 C          26.2020   20.8820   18.2770 C.ar    1  LIG1       -0.1747
      4 H          25.7440   20.2710   19.0430 H       1  LIG1        0.2902
      5 C          27.5040   21.3220   18.1570 C.ar    1  LIG1       -0.3110
      6 N          27.6070   22.1180   17.0300 N.ar    1  LIG1       -0.4607
      7 C          28.6730   21.0380   19.0550 C.3     1  LIG1        1.5439
      8 F          28.3650   20.1760   20.0680 F       1  LIG1       -0.4840
      9 F          29.1570   22.1690   19.6470 F       1  LIG1       -0.4443
     10 F          29.7200   20.4770   18.3820 F       1  LIG1       -0.4487
     11 C          24.0510   21.3770   17.1190 C.ar    1  LIG1        0.3884
     12 C          23.3470   22.2610   16.2900 C.ar    1  LIG1       -0.3278
     13 H          23.8400   23.0630   15.7470 H       1  LIG1        0.2087
     14 C          21.9540   22.1730   16.1760 C.ar    1  LIG1        0.0390
     15 H          21.4280   22.8710   15.5270 H       1  LIG1        0.1925
     16 C          21.2570   21.2100   16.9060 C.ar    1  LIG1       -0.5442
     17 C          21.9420   20.3280   17.7420 C.ar    1  LIG1        0.0136
     18 H          21.4090   19.5670   18.3100 H       1  LIG1        0.1978
     19 C          23.3340   20.4180   17.8550 C.ar    1  LIG1       -0.3088
     20 H          23.8330   19.6990   18.5030 H       1  LIG1        0.2100
     21 S          19.4910   21.0880   16.7440 S.O2    1  LIG1        2.1934
     22 O          18.9650   22.4320   16.5230 O.2     1  LIG1       -0.9638
     23 O          18.9890   20.3250   17.8810 O.2     1  LIG1       -0.9624
     24 C          19.2690   20.1360   15.2640 C.3     1  LIG1       -0.7263
     25 H          18.1970   20.0200   15.0940 H       1  LIG1        0.2425
     26 H          19.7320   19.1570   15.3990 H       1  LIG1        0.1937
     27 H          19.7230   20.6690   14.4270 H       1  LIG1        0.1917
     28 C          26.1810   22.7200   15.1340 C.ar    1  LIG1       -0.1674
     29 C          26.4430   24.0830   14.9250 C.ar    1  LIG1       -0.3073
     30 H          26.7910   24.7190   15.7340 H       1  LIG1        0.2699
     31 C          26.2410   24.5980   13.6610 C.ar    1  LIG1        0.2771
     32 C          25.8090   23.8140   12.6180 C.ar    1  LIG1        0.2960
     33 C          25.5590   22.4680   12.7770 C.ar    1  LIG1       -0.3857
     34 H          25.2270   21.8530   11.9470 H       1  LIG1        0.2506
     35 C          25.7550   21.9170   14.0490 C.ar    1  LIG1       -0.0354
     36 H          25.5770   20.8520   14.1910 H       1  LIG1        0.1435
     37 O          25.6760   24.5150   11.4610 O.3     1  LIG1       -0.4033
     38 C          26.0710   25.8390   11.8920 C.3     1  LIG1        0.2240
     39 H          25.2370   26.5280   11.7190 H       1  LIG1        0.1138
     40 H          26.9300   26.1620   11.2930 H       1  LIG1        0.1148
     41 O          26.4350   25.8920   13.2910 O.3     1  LIG1       -0.4046
@<TRIPOS>BOND
     1     1     2   ar
     2     2     3   ar
     3     3     4    1
     4     3     5   ar
     5     5     6   ar
     6     6     1   ar
     7     5     7    1
     8     7     8    1
     9     7     9    1
    10     7    10    1
    11     2    11    1
    12    11    12   ar
    13    12    13    1
    14    12    14   ar
    15    14    15    1
    16    14    16   ar
    17    16    17   ar
    18    17    18    1
    19    17    19   ar
    20    19    20    1
    21    19    11   ar
    22    16    21    1
    23    21    22    2
    24    21    23    2
    25    21    24    1
    26    24    25    1
    27    24    26    1
    28    24    27    1
    29     1    28    1
    30    28    29   ar
    31    29    30    1
    32    29    31   ar
    33    31    32   ar
    34    32    33   ar
    35    33    34    1
    36    33    35   ar
    37    35    36    1
    38    35    28   ar
    39    32    37    1
    40    37    38    1
    41    38    39    1
    42    38    40    1
    43    38    41    1
    44    41    31    1
