@<TRIPOS>MOLECULE
3_57
 38 40 0 0 0
SMALL
USER_CHARGES
****
From 3DB ct
@<TRIPOS>ATOM
      1 C          26.4050   22.1330   16.4600 C.ar    1  LIG1        0.5224
      2 N          25.4690   21.4590   17.2550 N.ar    1  LIG1       -0.2654
      3 C          26.1990   20.8820   18.2780 C.ar    1  LIG1       -0.1582
      4 H          25.7420   20.2710   19.0440 H       1  LIG1        0.2888
      5 C          27.5000   21.3260   18.1590 C.ar    1  LIG1       -0.3033
      6 N          27.6020   22.1200   17.0300 N.ar    1  LIG1       -0.4618
      7 C          28.6690   21.0450   19.0580 C.3     1  LIG1        1.5327
      8 F          28.3570   20.2050   20.0870 F       1  LIG1       -0.4805
      9 F          29.1670   22.1810   19.6290 F       1  LIG1       -0.4412
     10 F          29.7080   20.4620   18.3910 F       1  LIG1       -0.4444
     11 C          24.0480   21.3740   17.1210 C.ar    1  LIG1        0.3762
     12 C          23.3430   22.2590   16.2910 C.ar    1  LIG1       -0.3272
     13 H          23.8370   23.0610   15.7490 H       1  LIG1        0.1995
     14 C          21.9510   22.1720   16.1790 C.ar    1  LIG1        0.0500
     15 H          21.4240   22.8690   15.5310 H       1  LIG1        0.1935
     16 C          21.2550   21.2090   16.9100 C.ar    1  LIG1       -0.5477
     17 C          21.9400   20.3260   17.7460 C.ar    1  LIG1        0.0140
     18 H          21.4070   19.5660   18.3140 H       1  LIG1        0.1978
     19 C          23.3320   20.4160   17.8580 C.ar    1  LIG1       -0.2991
     20 H          23.8320   19.6980   18.5050 H       1  LIG1        0.2092
     21 S          19.4880   21.0850   16.7510 S.O2    1  LIG1        2.1918
     22 O          18.9600   22.4300   16.5480 O.2     1  LIG1       -0.9610
     23 O          18.9890   20.3070   17.8810 O.2     1  LIG1       -0.9591
     24 C          19.2640   20.1480   15.2620 C.3     1  LIG1       -0.7245
     25 H          18.1920   20.0300   15.0940 H       1  LIG1        0.2444
     26 H          19.7300   19.1690   15.3840 H       1  LIG1        0.1936
     27 H          19.7130   20.6920   14.4290 H       1  LIG1        0.1907
     28 C          26.1800   22.7110   15.1300 C.ar    1  LIG1       -0.1616
     29 C          26.4400   24.0720   14.9140 C.ar    1  LIG1       -0.2717
     30 H          26.7830   24.7090   15.7260 H       1  LIG1        0.2658
     31 C          26.2560   24.6210   13.6490 C.ar    1  LIG1        0.3642
     32 C          25.8280   23.8290   12.5900 C.ar    1  LIG1        0.4141
     33 C          25.5830   22.4750   12.7800 C.ar    1  LIG1       -0.3771
     34 H          25.2570   21.8590   11.9470 H       1  LIG1        0.2522
     35 C          25.7660   21.9140   14.0480 C.ar    1  LIG1       -0.0416
     36 H          25.5870   20.8480   14.1820 H       1  LIG1        0.1554
     37 F          25.6550   24.3690   11.3750 F       1  LIG1       -0.3162
     38 F          26.5000   25.9250   13.4530 F       1  LIG1       -0.3146
@<TRIPOS>BOND
     1     1     2   ar
     2     2     3   ar
     3     3     4    1
     4     3     5   ar
     5     5     6   ar
     6     6     1   ar
     7     5     7    1
     8     7     8    1
     9     7     9    1
    10     7    10    1
    11     2    11    1
    12    11    12   ar
    13    12    13    1
    14    12    14   ar
    15    14    15    1
    16    14    16   ar
    17    16    17   ar
    18    17    18    1
    19    17    19   ar
    20    19    20    1
    21    19    11   ar
    22    16    21    1
    23    21    22    2
    24    21    23    2
    25    21    24    1
    26    24    25    1
    27    24    26    1
    28    24    27    1
    29     1    28    1
    30    28    29   ar
    31    29    30    1
    32    29    31   ar
    33    31    32   ar
    34    32    33   ar
    35    33    34    1
    36    33    35   ar
    37    35    36    1
    38    35    28   ar
    39    32    37    1
    40    31    38    1
