@<TRIPOS>MOLECULE
3_69
 41 43 0 0 0
SMALL
USER_CHARGES
****
From 3DB ct
@<TRIPOS>ATOM
      1 C          26.4040   22.1310   16.4590 C.ar    1  LIG1        0.4315
      2 N          25.4680   21.4590   17.2560 N.ar    1  LIG1       -0.2819
      3 C          26.1990   20.8840   18.2800 C.ar    1  LIG1       -0.1859
      4 H          25.7420   20.2750   19.0480 H       1  LIG1        0.2873
      5 C          27.5010   21.3240   18.1580 C.ar    1  LIG1       -0.2444
      6 N          27.6020   22.1170   17.0290 N.ar    1  LIG1       -0.4659
      7 C          28.6710   21.0410   19.0550 C.3     1  LIG1        1.4935
      8 F          28.3490   20.2300   20.1050 F       1  LIG1       -0.4737
      9 F          29.1950   22.1780   19.5970 F       1  LIG1       -0.4315
     10 F          29.6920   20.4220   18.3940 F       1  LIG1       -0.4417
     11 C          24.0470   21.3740   17.1220 C.ar    1  LIG1        0.5160
     12 C          23.3420   22.2580   16.2940 C.ar    1  LIG1       -0.4529
     13 H          23.8340   23.0610   15.7510 H       1  LIG1        0.2348
     14 C          21.9490   22.1700   16.1830 C.ar    1  LIG1        0.1529
     15 H          21.4170   22.8670   15.5380 H       1  LIG1        0.1818
     16 C          21.2520   21.2060   16.9140 C.ar    1  LIG1       -0.6660
     17 C          21.9390   20.3250   17.7500 C.ar    1  LIG1        0.1240
     18 H          21.4070   19.5660   18.3200 H       1  LIG1        0.1826
     19 C          23.3310   20.4150   17.8600 C.ar    1  LIG1       -0.3719
     20 H          23.8320   19.6970   18.5070 H       1  LIG1        0.2158
     21 S          19.4930   21.0860   16.7440 S.O2    1  LIG1        2.4598
     22 O          18.9440   22.3990   16.4520 O.2     1  LIG1       -0.9859
     23 O          18.9650   20.2950   17.8410 O.2     1  LIG1       -0.9868
     24 N          19.3360   20.1730   15.3490 N.3     1  LIG1       -1.3089
     25 H          18.8580   20.7010   14.6150 H       1  LIG1        0.4861
     26 H          18.8610   19.2860   15.5400 H       1  LIG1        0.4906
     27 C          26.1790   22.7070   15.1290 C.ar    1  LIG1       -0.1316
     28 C          26.4370   24.0660   14.9100 C.ar    1  LIG1        0.1131
     29 H          26.7790   24.6880   15.7360 H       1  LIG1        0.1344
     30 C          26.2570   24.6310   13.6410 C.ar    1  LIG1       -0.4771
     31 C          25.8290   23.8380   12.5640 C.ar    1  LIG1        0.3217
     32 C          25.5830   22.4760   12.7840 C.ar    1  LIG1       -0.3433
     33 H          25.2530   21.8320   11.9710 H       1  LIG1        0.1988
     34 C          25.7660   21.9140   14.0520 C.ar    1  LIG1        0.0199
     35 H          25.5840   20.8480   14.1850 H       1  LIG1        0.1253
     36 S          25.5650   24.4680   10.9080 S.3     1  LIG1       -0.1219
     37 C          25.0320   22.9240   10.1150 C.3     1  LIG1       -0.2142
     38 H          24.8090   23.1210    9.0630 H       1  LIG1        0.1464
     39 H          24.1300   22.5380   10.5970 H       1  LIG1        0.0802
     40 H          25.8220   22.1710   10.1680 H       1  LIG1        0.0684
     41 CL         26.5810   26.3240   13.4730 Cl      1  LIG1        0.1208
@<TRIPOS>BOND
     1     1     2   ar
     2     2     3   ar
     3     3     4    1
     4     3     5   ar
     5     5     6   ar
     6     6     1   ar
     7     5     7    1
     8     7     8    1
     9     7     9    1
    10     7    10    1
    11     2    11    1
    12    11    12   ar
    13    12    13    1
    14    12    14   ar
    15    14    15    1
    16    14    16   ar
    17    16    17   ar
    18    17    18    1
    19    17    19   ar
    20    19    20    1
    21    19    11   ar
    22    16    21    1
    23    21    22    2
    24    21    23    2
    25    21    24    1
    26    24    25    1
    27    24    26    1
    28     1    27    1
    29    27    28   ar
    30    28    29    1
    31    28    30   ar
    32    30    31   ar
    33    31    32   ar
    34    32    33    1
    35    32    34   ar
    36    34    35    1
    37    34    27   ar
    38    31    36    1
    39    36    37    1
    40    37    38    1
    41    37    39    1
    42    37    40    1
    43    30    41    1
