@<TRIPOS>MOLECULE
3_71
 41 43 0 0 0
SMALL
USER_CHARGES
****
From 3DB ct
@<TRIPOS>ATOM
      1 C          26.4060   22.1280   16.4580 C.ar    1  LIG1        0.4216
      2 N          25.4700   21.4590   17.2570 N.ar    1  LIG1       -0.2301
      3 C          26.2000   20.8870   18.2830 C.ar    1  LIG1       -0.1888
      4 H          25.7430   20.2810   19.0520 H       1  LIG1        0.2859
      5 C          27.5020   21.3280   18.1600 C.ar    1  LIG1       -0.2667
      6 N          27.6040   22.1160   17.0280 N.ar    1  LIG1       -0.4718
      7 C          28.6700   21.0500   19.0600 C.3     1  LIG1        1.5188
      8 F          28.3570   20.2160   20.0940 F       1  LIG1       -0.4789
      9 F          29.1710   22.1880   19.6250 F       1  LIG1       -0.4409
     10 F          29.7070   20.4610   18.3960 F       1  LIG1       -0.4442
     11 C          24.0480   21.3740   17.1230 C.ar    1  LIG1        0.4352
     12 C          23.3440   22.2590   16.2940 C.ar    1  LIG1       -0.3805
     13 H          23.8360   23.0610   15.7520 H       1  LIG1        0.2118
     14 C          21.9510   22.1700   16.1820 C.ar    1  LIG1        0.1060
     15 H          21.4190   22.8670   15.5370 H       1  LIG1        0.1970
     16 C          21.2540   21.2050   16.9120 C.ar    1  LIG1       -0.6433
     17 C          21.9400   20.3250   17.7490 C.ar    1  LIG1        0.0925
     18 H          21.4070   19.5660   18.3190 H       1  LIG1        0.1900
     19 C          23.3320   20.4150   17.8600 C.ar    1  LIG1       -0.3428
     20 H          23.8320   19.6970   18.5080 H       1  LIG1        0.2149
     21 S          19.4950   21.0890   16.7400 S.O2    1  LIG1        2.4737
     22 O          18.9480   22.4020   16.4480 O.2     1  LIG1       -0.9947
     23 O          18.9660   20.2960   17.8360 O.2     1  LIG1       -0.9915
     24 N          19.3370   20.1780   15.3430 N.3     1  LIG1       -1.2989
     25 H          18.8610   20.7080   14.6090 H       1  LIG1        0.4834
     26 H          18.8610   19.2920   15.5310 H       1  LIG1        0.4856
     27 C          26.1780   22.7030   15.1270 C.ar    1  LIG1        0.1548
     28 C          26.4400   24.0670   14.9070 C.ar    1  LIG1       -0.5900
     29 H          26.7890   24.6590   15.7500 H       1  LIG1        0.2500
     30 C          26.2540   24.6420   13.6430 C.ar    1  LIG1        1.0132
     31 C          25.8120   23.8260   12.5890 C.ar    1  LIG1       -0.8953
     32 C          25.5690   22.4660   12.7920 C.ar    1  LIG1        0.3359
     33 H          25.2360   21.8340   11.9720 H       1  LIG1        0.0848
     34 C          25.7580   21.9050   14.0560 C.ar    1  LIG1       -0.3652
     35 H          25.5770   20.8400   14.1930 H       1  LIG1        0.1750
     36 CL         25.5600   24.4660   11.0010 Cl      1  LIG1        0.1841
     37 O          26.4770   25.9640   13.3500 O.3     1  LIG1       -0.5889
     38 C          26.9150   26.8070   14.4120 C.3     1  LIG1        0.1505
     39 H          27.0320   27.8170   14.0080 H       1  LIG1        0.0998
     40 H          27.8900   26.4860   14.7930 H       1  LIG1        0.0287
     41 H          26.1690   26.8530   15.2130 H       1  LIG1        0.0193
@<TRIPOS>BOND
     1     1     2   ar
     2     2     3   ar
     3     3     4    1
     4     3     5   ar
     5     5     6   ar
     6     6     1   ar
     7     5     7    1
     8     7     8    1
     9     7     9    1
    10     7    10    1
    11     2    11    1
    12    11    12   ar
    13    12    13    1
    14    12    14   ar
    15    14    15    1
    16    14    16   ar
    17    16    17   ar
    18    17    18    1
    19    17    19   ar
    20    19    20    1
    21    19    11   ar
    22    16    21    1
    23    21    22    2
    24    21    23    2
    25    21    24    1
    26    24    25    1
    27    24    26    1
    28     1    27    1
    29    27    28   ar
    30    28    29    1
    31    28    30   ar
    32    30    31   ar
    33    31    32   ar
    34    32    33    1
    35    32    34   ar
    36    34    35    1
    37    34    27   ar
    38    31    36    1
    39    30    37    1
    40    37    38    1
    41    38    39    1
    42    38    40    1
    43    38    41    1
