@<TRIPOS>MOLECULE
3_72
 37 39 0 0 0
SMALL
USER_CHARGES
****
From 3DB ct
@<TRIPOS>ATOM
      1 C          26.4040   22.1330   16.4600 C.ar    1  LIG1        0.5501
      2 N          25.4690   21.4600   17.2560 N.ar    1  LIG1       -0.3135
      3 C          26.2000   20.8810   18.2770 C.ar    1  LIG1       -0.1517
      4 H          25.7440   20.2690   19.0430 H       1  LIG1        0.2856
      5 C          27.5020   21.3240   18.1570 C.ar    1  LIG1       -0.2974
      6 N          27.6030   22.1190   17.0290 N.ar    1  LIG1       -0.4694
      7 C          28.6710   21.0400   19.0540 C.3     1  LIG1        1.5334
      8 F          28.3540   20.2130   20.0930 F       1  LIG1       -0.4813
      9 F          29.1820   22.1760   19.6130 F       1  LIG1       -0.4420
     10 F          29.7020   20.4410   18.3880 F       1  LIG1       -0.4447
     11 C          24.0480   21.3750   17.1220 C.ar    1  LIG1        0.4611
     12 C          23.3430   22.2600   16.2930 C.ar    1  LIG1       -0.3739
     13 H          23.8360   23.0620   15.7510 H       1  LIG1        0.2039
     14 C          21.9510   22.1720   16.1820 C.ar    1  LIG1        0.1197
     15 H          21.4190   22.8690   15.5370 H       1  LIG1        0.1926
     16 C          21.2530   21.2080   16.9130 C.ar    1  LIG1       -0.6506
     17 C          21.9400   20.3270   17.7490 C.ar    1  LIG1        0.0839
     18 H          21.4070   19.5680   18.3190 H       1  LIG1        0.1956
     19 C          23.3320   20.4160   17.8600 C.ar    1  LIG1       -0.3437
     20 H          23.8320   19.6980   18.5060 H       1  LIG1        0.2162
     21 S          19.4940   21.0860   16.7430 S.O2    1  LIG1        2.4697
     22 O          18.9440   22.3980   16.4500 O.2     1  LIG1       -0.9918
     23 O          18.9650   20.2950   17.8400 O.2     1  LIG1       -0.9884
     24 N          19.3390   20.1710   15.3490 N.3     1  LIG1       -1.2939
     25 H          18.8600   20.6970   14.6140 H       1  LIG1        0.4831
     26 H          18.8660   19.2840   15.5410 H       1  LIG1        0.4828
     27 C          26.1780   22.7120   15.1310 C.ar    1  LIG1       -0.1807
     28 C          26.4380   24.0720   14.9140 C.ar    1  LIG1       -0.2655
     29 H          26.7820   24.7090   15.7250 H       1  LIG1        0.2638
     30 C          26.2530   24.6200   13.6490 C.ar    1  LIG1        0.3592
     31 C          25.8240   23.8280   12.5910 C.ar    1  LIG1        0.4170
     32 C          25.5790   22.4740   12.7820 C.ar    1  LIG1       -0.3746
     33 H          25.2540   21.8570   11.9490 H       1  LIG1        0.2513
     34 C          25.7630   21.9140   14.0500 C.ar    1  LIG1       -0.0319
     35 H          25.5850   20.8480   14.1840 H       1  LIG1        0.1576
     36 F          25.6520   24.3670   11.3750 F       1  LIG1       -0.3168
     37 F          26.4960   25.9240   13.4520 F       1  LIG1       -0.3151
@<TRIPOS>BOND
     1     1     2   ar
     2     2     3   ar
     3     3     4    1
     4     3     5   ar
     5     5     6   ar
     6     6     1   ar
     7     5     7    1
     8     7     8    1
     9     7     9    1
    10     7    10    1
    11     2    11    1
    12    11    12   ar
    13    12    13    1
    14    12    14   ar
    15    14    15    1
    16    14    16   ar
    17    16    17   ar
    18    17    18    1
    19    17    19   ar
    20    19    20    1
    21    19    11   ar
    22    16    21    1
    23    21    22    2
    24    21    23    2
    25    21    24    1
    26    24    25    1
    27    24    26    1
    28     1    27    1
    29    27    28   ar
    30    28    29    1
    31    28    30   ar
    32    30    31   ar
    33    31    32   ar
    34    32    33    1
    35    32    34   ar
    36    34    35    1
    37    34    27   ar
    38    31    36    1
    39    30    37    1
