@<TRIPOS>MOLECULE
3_73
 40 42 0 0 0
SMALL
USER_CHARGES
****
From 3DB ct
@<TRIPOS>ATOM
      1 C          26.4090   22.1280   16.4600 C.ar    1  LIG1        0.3965
      2 N          25.4710   21.4610   17.2590 N.ar    1  LIG1       -0.1804
      3 C          26.2010   20.8870   18.2850 C.ar    1  LIG1       -0.2222
      4 H          25.7430   20.2840   19.0560 H       1  LIG1        0.2884
      5 C          27.5040   21.3230   18.1600 C.ar    1  LIG1       -0.2450
      6 N          27.6080   22.1100   17.0260 N.ar    1  LIG1       -0.4694
      7 C          28.6730   21.0420   19.0590 C.3     1  LIG1        1.5145
      8 F          28.3630   20.1930   20.0820 F       1  LIG1       -0.4775
      9 F          29.1650   22.1760   19.6390 F       1  LIG1       -0.4422
     10 F          29.7150   20.4680   18.3890 F       1  LIG1       -0.4443
     11 C          24.0500   21.3760   17.1230 C.ar    1  LIG1        0.4230
     12 C          23.3460   22.2610   16.2930 C.ar    1  LIG1       -0.3885
     13 H          23.8390   23.0640   15.7520 H       1  LIG1        0.2210
     14 C          21.9540   22.1720   16.1800 C.ar    1  LIG1        0.1061
     15 H          21.4240   22.8700   15.5340 H       1  LIG1        0.1939
     16 C          21.2560   21.2080   16.9090 C.ar    1  LIG1       -0.6350
     17 C          21.9410   20.3270   17.7460 C.ar    1  LIG1        0.0786
     18 H          21.4070   19.5690   18.3150 H       1  LIG1        0.1918
     19 C          23.3330   20.4170   17.8600 C.ar    1  LIG1       -0.3217
     20 H          23.8320   19.6990   18.5070 H       1  LIG1        0.2103
     21 S          19.4970   21.0880   16.7340 S.O2    1  LIG1        2.4566
     22 O          18.9490   22.4000   16.4410 O.2     1  LIG1       -0.9891
     23 O          18.9660   20.2960   17.8300 O.2     1  LIG1       -0.9867
     24 N          19.3430   20.1740   15.3390 N.3     1  LIG1       -1.3111
     25 H          18.8670   20.7020   14.6030 H       1  LIG1        0.4884
     26 H          18.8690   19.2880   15.5280 H       1  LIG1        0.4931
     27 C          26.1780   22.7030   15.1300 C.ar    1  LIG1       -0.1610
     28 C          26.4350   24.0650   14.9080 C.ar    1  LIG1       -0.1947
     29 H          26.7840   24.6860   15.7340 H       1  LIG1        0.2263
     30 C          26.2440   24.6390   13.6430 C.ar    1  LIG1        0.1158
     31 C          25.7800   23.8360   12.5950 C.ar    1  LIG1        0.1498
     32 H          25.6080   24.2700   11.6110 H       1  LIG1        0.1130
     33 C          25.5460   22.4770   12.8050 C.ar    1  LIG1       -0.6556
     34 C          25.7500   21.9060   14.0600 C.ar    1  LIG1        0.3100
     35 H          25.5730   20.8430   14.2040 H       1  LIG1        0.0469
     36 CL         24.9940   21.4950   11.5020 Cl      1  LIG1        0.1294
     37 C          26.4770   26.1070   13.4310 C.3     1  LIG1       -0.3853
     38 H          26.7830   26.3090   12.4000 H       1  LIG1        0.1165
     39 H          27.2750   26.4740   14.0850 H       1  LIG1        0.1224
     40 H          25.5600   26.6650   13.6440 H       1  LIG1        0.1175
@<TRIPOS>BOND
     1     1     2   ar
     2     2     3   ar
     3     3     4    1
     4     3     5   ar
     5     5     6   ar
     6     6     1   ar
     7     5     7    1
     8     7     8    1
     9     7     9    1
    10     7    10    1
    11     2    11    1
    12    11    12   ar
    13    12    13    1
    14    12    14   ar
    15    14    15    1
    16    14    16   ar
    17    16    17   ar
    18    17    18    1
    19    17    19   ar
    20    19    20    1
    21    19    11   ar
    22    16    21    1
    23    21    22    2
    24    21    23    2
    25    21    24    1
    26    24    25    1
    27    24    26    1
    28     1    27    1
    29    27    28   ar
    30    28    29    1
    31    28    30   ar
    32    30    31   ar
    33    31    32    1
    34    31    33   ar
    35    33    34   ar
    36    34    35    1
    37    34    27   ar
    38    33    36    1
    39    30    37    1
    40    37    38    1
    41    37    39    1
    42    37    40    1
