@<TRIPOS>MOLECULE
3_88
 38 40 0 0 0
SMALL
USER_CHARGES
****
From 3DB ct
@<TRIPOS>ATOM
      1 C          26.4090   22.1300   16.4600 C.ar    1  LIG1        0.2657
      2 N          25.4690   21.4610   17.2560 N.ar    1  LIG1       -0.2848
      3 C          26.1990   20.8880   18.2820 C.ar    1  LIG1       -0.3278
      4 H          25.7410   20.2850   19.0540 H       1  LIG1        0.2989
      5 C          27.4960   21.3280   18.1520 C.ar    1  LIG1        0.2361
      6 N          27.6070   22.1110   17.0300 N.ar    1  LIG1       -0.6267
      7 C          28.6600   21.0560   19.0380 C.3     1  LIG1        0.2659
      8 H          28.3760   20.4140   19.8770 H       1  LIG1        0.0726
      9 H          29.0750   21.9880   19.4340 H       1  LIG1        0.0850
     10 F          29.6510   20.4170   18.3440 F       1  LIG1       -0.3951
     11 C          24.0480   21.3760   17.1210 C.ar    1  LIG1        0.4854
     12 C          23.3430   22.2590   16.2910 C.ar    1  LIG1       -0.4150
     13 H          23.8360   23.0610   15.7470 H       1  LIG1        0.2215
     14 C          21.9500   22.1710   16.1780 C.ar    1  LIG1        0.0673
     15 H          21.4230   22.8680   15.5290 H       1  LIG1        0.1890
     16 C          21.2540   21.2080   16.9090 C.ar    1  LIG1       -0.5611
     17 C          21.9400   20.3260   17.7450 C.ar    1  LIG1        0.0208
     18 H          21.4080   19.5650   18.3130 H       1  LIG1        0.1940
     19 C          23.3320   20.4160   17.8570 C.ar    1  LIG1       -0.3310
     20 H          23.8320   19.6980   18.5040 H       1  LIG1        0.2142
     21 S          19.4880   21.0840   16.7480 S.O2    1  LIG1        2.1878
     22 O          18.9600   22.4280   16.5370 O.2     1  LIG1       -0.9648
     23 O          18.9880   20.3120   17.8820 O.2     1  LIG1       -0.9621
     24 C          19.2650   20.1400   15.2640 C.3     1  LIG1       -0.7336
     25 H          18.1930   20.0230   15.0940 H       1  LIG1        0.2441
     26 H          19.7300   19.1600   15.3920 H       1  LIG1        0.1964
     27 H          19.7170   20.6790   14.4290 H       1  LIG1        0.1921
     28 C          26.1820   22.7070   15.1300 C.ar    1  LIG1        0.3568
     29 C          26.4430   24.0680   14.9090 C.ar    1  LIG1       -0.4163
     30 H          26.7930   24.6980   15.7250 H       1  LIG1        0.2363
     31 C          26.2520   24.6310   13.6430 C.ar    1  LIG1        0.3137
     32 H          26.4510   25.6900   13.4920 H       1  LIG1        0.0699
     33 C          25.8130   23.8330   12.5890 C.ar    1  LIG1       -0.6766
     34 C          25.5690   22.4760   12.7880 C.ar    1  LIG1        0.2639
     35 H          25.2350   21.8470   11.9660 H       1  LIG1        0.0804
     36 C          25.7600   21.9130   14.0530 C.ar    1  LIG1       -0.3757
     37 H          25.5780   20.8480   14.1880 H       1  LIG1        0.1766
     38 CL         25.5780   24.5260   11.0310 Cl      1  LIG1        0.1362
@<TRIPOS>BOND
     1     1     2   ar
     2     2     3   ar
     3     3     4    1
     4     3     5   ar
     5     5     6   ar
     6     6     1   ar
     7     5     7    1
     8     7     8    1
     9     7     9    1
    10     7    10    1
    11     2    11    1
    12    11    12   ar
    13    12    13    1
    14    12    14   ar
    15    14    15    1
    16    14    16   ar
    17    16    17   ar
    18    17    18    1
    19    17    19   ar
    20    19    20    1
    21    19    11   ar
    22    16    21    1
    23    21    22    2
    24    21    23    2
    25    21    24    1
    26    24    25    1
    27    24    26    1
    28    24    27    1
    29     1    28    1
    30    28    29   ar
    31    29    30    1
    32    29    31   ar
    33    31    32    1
    34    31    33   ar
    35    33    34   ar
    36    34    35    1
    37    34    36   ar
    38    36    37    1
    39    36    28   ar
    40    33    38    1
