@<TRIPOS>MOLECULE
3_89
 37 39 0 0 0
SMALL
USER_CHARGES
****
From 3DB ct
@<TRIPOS>ATOM
      1 C          26.4080   22.1300   16.4600 C.ar    1  LIG1        0.1650
      2 N          25.4700   21.4600   17.2570 N.ar    1  LIG1       -0.1469
      3 C          26.1990   20.8860   18.2830 C.ar    1  LIG1       -0.3592
      4 H          25.7390   20.2790   19.0510 H       1  LIG1        0.3108
      5 CA         27.4950   21.3280   18.1540 C.ar    1  LIG1        0.1918
      6 N          27.6070   22.1140   17.0300 N.ar    1  LIG1       -0.5629
      7 C          28.6000   21.0290   19.0520 C.2     1  LIG1        0.4813
      8 H          29.5670   21.4800   18.7750 H       1  LIG1        0.0615
      9 O          28.4980   20.3250   20.0600 O.2     1  LIG1       -0.5380
     10 C          24.0490   21.3750   17.1210 C.ar    1  LIG1        0.4196
     11 C          23.3440   22.2590   16.2910 C.ar    1  LIG1       -0.4002
     12 H          23.8370   23.0600   15.7470 H       1  LIG1        0.2215
     13 C          21.9520   22.1710   16.1780 C.ar    1  LIG1        0.0672
     14 H          21.4250   22.8680   15.5290 H       1  LIG1        0.1887
     15 C          21.2550   21.2080   16.9090 C.ar    1  LIG1       -0.5506
     16 C          21.9400   20.3250   17.7440 C.ar    1  LIG1        0.0208
     17 H          21.4080   19.5650   18.3130 H       1  LIG1        0.1933
     18 C          23.3320   20.4160   17.8570 C.ar    1  LIG1       -0.3236
     19 H          23.8320   19.6970   18.5040 H       1  LIG1        0.2152
     20 S          19.4890   21.0860   16.7470 S.O2    1  LIG1        2.1822
     21 O          18.9620   22.4310   16.5310 O.2     1  LIG1       -0.9617
     22 O          18.9880   20.3190   17.8830 O.2     1  LIG1       -0.9591
     23 C          19.2660   20.1380   15.2650 C.3     1  LIG1       -0.7342
     24 H          18.1930   20.0220   15.0950 H       1  LIG1        0.2458
     25 H          19.7290   19.1580   15.3960 H       1  LIG1        0.1968
     26 H          19.7190   20.6740   14.4290 H       1  LIG1        0.1923
     27 C          26.1810   22.7070   15.1300 C.ar    1  LIG1        0.3451
     28 C          26.4410   24.0670   14.9090 C.ar    1  LIG1       -0.4101
     29 H          26.7900   24.6990   15.7250 H       1  LIG1        0.2392
     30 C          26.2510   24.6310   13.6430 C.ar    1  LIG1        0.3138
     31 H          26.4500   25.6890   13.4920 H       1  LIG1        0.0699
     32 C          25.8130   23.8320   12.5890 C.ar    1  LIG1       -0.6695
     33 C          25.5690   22.4750   12.7880 C.ar    1  LIG1        0.2453
     34 H          25.2350   21.8460   11.9660 H       1  LIG1        0.0842
     35 C          25.7590   21.9120   14.0540 C.ar    1  LIG1       -0.3446
     36 H          25.5770   20.8470   14.1890 H       1  LIG1        0.1704
     37 CL         25.5800   24.5240   11.0300 Cl      1  LIG1        0.1389
@<TRIPOS>BOND
     1     1     2   ar
     2     2     3   ar
     3     3     4    1
     4     3     5   ar
     5     5     6   ar
     6     6     1   ar
     7     5     7    1
     8     7     8    1
     9     7     9    2
    10     2    10    1
    11    10    11   ar
    12    11    12    1
    13    11    13   ar
    14    13    14    1
    15    13    15   ar
    16    15    16   ar
    17    16    17    1
    18    16    18   ar
    19    18    19    1
    20    18    10   ar
    21    15    20    1
    22    20    21    2
    23    20    22    2
    24    20    23    1
    25    23    24    1
    26    23    25    1
    27    23    26    1
    28     1    27    1
    29    27    28   ar
    30    28    29    1
    31    28    30   ar
    32    30    31    1
    33    30    32   ar
    34    32    33   ar
    35    33    34    1
    36    33    35   ar
    37    35    36    1
    38    35    27   ar
    39    32    37    1
