@<TRIPOS>MOLECULE
3_96
 45 48 0 0 0
SMALL
USER_CHARGES
****
From 3DB ct
@<TRIPOS>ATOM
      1 C          26.4080   22.1290   16.4600 C.ar    1  LIG1        0.1285
      2 N          25.4700   21.4610   17.2570 N.ar    1  LIG1       -0.1186
      3 C          26.2000   20.8880   18.2850 C.ar    1  LIG1       -0.5074
      4 H          25.7290   20.2870   19.0480 H       1  LIG1        0.3289
      5 C          27.4940   21.3290   18.1500 C.ar    1  LIG1        0.3738
      6 N          27.6050   22.1100   17.0300 N.ar    1  LIG1       -0.5267
      7 C          28.6140   21.0420   19.0370 C.ar    1  LIG1       -0.1055
      8 C          28.4810   20.2230   20.1690 C.ar    1  LIG1       -0.1613
      9 H          27.5260   19.7690   20.4270 H       1  LIG1        0.1388
     10 C          29.5760   19.9670   21.0000 C.ar    1  LIG1       -0.1471
     11 H          29.4560   19.3290   21.8750 H       1  LIG1        0.1448
     12 C          30.8200   20.5240   20.7120 C.ar    1  LIG1       -0.1207
     13 H          31.6710   20.3240   21.3600 H       1  LIG1        0.1442
     14 C          30.9700   21.3390   19.5930 C.ar    1  LIG1       -0.2140
     15 H          31.9400   21.7770   19.3630 H       1  LIG1        0.1624
     16 C          29.8750   21.5950   18.7620 C.ar    1  LIG1       -0.0133
     17 H          30.0170   22.2350   17.8920 H       1  LIG1        0.1354
     18 C          24.0490   21.3750   17.1210 C.ar    1  LIG1        0.4322
     19 C          23.3450   22.2600   16.2910 C.ar    1  LIG1       -0.4182
     20 H          23.8390   23.0610   15.7470 H       1  LIG1        0.2273
     21 C          21.9530   22.1720   16.1770 C.ar    1  LIG1        0.0730
     22 H          21.4260   22.8690   15.5280 H       1  LIG1        0.1846
     23 C          21.2560   21.2090   16.9080 C.ar    1  LIG1       -0.5606
     24 C          21.9410   20.3260   17.7440 C.ar    1  LIG1        0.0258
     25 H          21.4080   19.5660   18.3110 H       1  LIG1        0.1912
     26 C          23.3320   20.4160   17.8570 C.ar    1  LIG1       -0.3285
     27 H          23.8320   19.6980   18.5040 H       1  LIG1        0.2068
     28 S          19.4890   21.0850   16.7460 S.O2    1  LIG1        2.1854
     29 O          18.9620   22.4300   16.5360 O.2     1  LIG1       -0.9647
     30 O          18.9890   20.3120   17.8790 O.2     1  LIG1       -0.9642
     31 C          19.2680   20.1420   15.2610 C.3     1  LIG1       -0.7324
     32 H          18.1960   20.0220   15.0930 H       1  LIG1        0.2431
     33 H          19.7360   19.1640   15.3880 H       1  LIG1        0.1949
     34 H          19.7170   20.6830   14.4260 H       1  LIG1        0.1918
     35 C          26.1810   22.7060   15.1300 C.ar    1  LIG1        0.3422
     36 C          26.4410   24.0670   14.9090 C.ar    1  LIG1       -0.3956
     37 H          26.7920   24.6970   15.7260 H       1  LIG1        0.2328
     38 C          26.2500   24.6320   13.6440 C.ar    1  LIG1        0.3003
     39 H          26.4500   25.6900   13.4940 H       1  LIG1        0.0709
     40 C          25.8100   23.8340   12.5900 C.ar    1  LIG1       -0.6628
     41 C          25.5660   22.4770   12.7880 C.ar    1  LIG1        0.2489
     42 H          25.2310   21.8490   11.9660 H       1  LIG1        0.0797
     43 C          25.7580   21.9130   14.0530 C.ar    1  LIG1       -0.3507
     44 H          25.5760   20.8480   14.1870 H       1  LIG1        0.1734
     45 CL         25.5750   24.5290   11.0330 Cl      1  LIG1        0.1312
@<TRIPOS>BOND
     1     1     2   ar
     2     2     3   ar
     3     3     4    1
     4     3     5   ar
     5     5     6   ar
     6     6     1   ar
     7     5     7    1
     8     7     8   ar
     9     8     9    1
    10     8    10   ar
    11    10    11    1
    12    10    12   ar
    13    12    13    1
    14    12    14   ar
    15    14    15    1
    16    14    16   ar
    17    16    17    1
    18    16     7   ar
    19     2    18    1
    20    18    19   ar
    21    19    20    1
    22    19    21   ar
    23    21    22    1
    24    21    23   ar
    25    23    24   ar
    26    24    25    1
    27    24    26   ar
    28    26    27    1
    29    26    18   ar
    30    23    28    1
    31    28    29    2
    32    28    30    2
    33    28    31    1
    34    31    32    1
    35    31    33    1
    36    31    34    1
    37     1    35    1
    38    35    36   ar
    39    36    37    1
    40    36    38   ar
    41    38    39    1
    42    38    40   ar
    43    40    41   ar
    44    41    42    1
    45    41    43   ar
    46    43    44    1
    47    43    35   ar
    48    40    45    1
