@<TRIPOS>MOLECULE
4_36
 40 42 0 0 0
SMALL
USER_CHARGES
****
From 3DB ct
@<TRIPOS>ATOM
      1 C          26.4130   22.1110   16.4510 C.ar    1  LIG1        0.5704
      2 N          25.4670   21.4830   17.2720 N.ar    1  LIG1       -0.2482
      3 C          26.1920   20.9330   18.3140 C.ar    1  LIG1       -0.2000
      4 H          25.7280   20.3700   19.1110 H       1  LIG1        0.2962
      5 C          27.5070   21.3220   18.1590 C.ar    1  LIG1       -0.2922
      6 N          27.6200   22.0650   16.9980 N.ar    1  LIG1       -0.4661
      7 C          28.6780   21.0360   19.0540 C.3     1  LIG1        1.5443
      8 F          29.2000   22.1730   19.6010 F       1  LIG1       -0.4458
      9 F          29.7010   20.4230   18.3900 F       1  LIG1       -0.4491
     10 F          28.3580   20.2200   20.1010 F       1  LIG1       -0.4840
     11 C          24.0440   21.3940   17.1330 C.ar    1  LIG1        0.3957
     12 C          23.3340   22.2670   16.2960 C.ar    1  LIG1       -0.3287
     13 H          23.8140   23.0760   15.7560 H       1  LIG1        0.2046
     14 C          21.9430   22.1620   16.1730 C.ar    1  LIG1        0.0483
     15 H          21.4130   22.8560   15.5230 H       1  LIG1        0.1907
     16 C          21.2530   21.1820   16.8880 C.ar    1  LIG1       -0.5599
     17 C          21.9400   20.3210   17.7430 C.ar    1  LIG1        0.0291
     18 H          21.4130   19.5590   18.3120 H       1  LIG1        0.1954
     19 C          23.3310   20.4290   17.8660 C.ar    1  LIG1       -0.3076
     20 H          23.8300   19.7170   18.5200 H       1  LIG1        0.2065
     21 S          19.4850   21.0660   16.7440 S.O2    1  LIG1        2.1939
     22 O          18.9600   22.4160   16.5670 O.2     1  LIG1       -0.9646
     23 O          18.9930   20.2720   17.8660 O.2     1  LIG1       -0.9619
     24 C          19.2450   20.1510   15.2440 C.3     1  LIG1       -0.7293
     25 H          18.1710   20.0350   15.0860 H       1  LIG1        0.2439
     26 H          19.7130   19.1700   15.3470 H       1  LIG1        0.1953
     27 H          19.6860   20.7070   14.4140 H       1  LIG1        0.1961
     28 C          26.1830   22.6920   15.1260 C.ar    1  LIG1       -0.6735
     29 C          26.4570   24.0520   14.9250 C.ar    1  LIG1        0.2201
     30 H          26.8180   24.6680   15.7460 H       1  LIG1        0.1484
     31 C          26.2600   24.6270   13.6730 C.ar    1  LIG1       -0.4927
     32 H          26.4580   25.6810   13.5040 H       1  LIG1        0.2117
     33 C          25.8070   23.8210   12.6470 C.ar    1  LIG1        0.3991
     34 H          25.6360   24.2310   11.6540 H       1  LIG1        0.1164
     35 N          25.5540   22.4990   12.7900 N.ar    1  LIG1       -0.7447
     36 C          25.7560   21.9430   14.0190 C.ar    1  LIG1        0.8291
     37 C          25.4990   20.4640   14.1080 C.3     1  LIG1       -0.4724
     38 H          25.3580   20.0390   13.1080 H       1  LIG1        0.1442
     39 H          24.5930   20.2640   14.6850 H       1  LIG1        0.1010
     40 H          26.3490   19.9480   14.5660 H       1  LIG1        0.1402
@<TRIPOS>BOND
     1     1     2   ar
     2     2     3   ar
     3     3     4    1
     4     3     5   ar
     5     5     6   ar
     6     6     1   ar
     7     5     7    1
     8     7     8    1
     9     7     9    1
    10     7    10    1
    11     2    11    1
    12    11    12   ar
    13    12    13    1
    14    12    14   ar
    15    14    15    1
    16    14    16   ar
    17    16    17   ar
    18    17    18    1
    19    17    19   ar
    20    19    20    1
    21    19    11   ar
    22    16    21    1
    23    21    22    2
    24    21    23    2
    25    21    24    1
    26    24    25    1
    27    24    26    1
    28    24    27    1
    29     1    28    1
    30    28    29   ar
    31    29    30    1
    32    29    31   ar
    33    31    32    1
    34    31    33   ar
    35    33    34    1
    36    33    35   ar
    37    35    36   ar
    38    36    28   ar
    39    36    37    1
    40    37    38    1
    41    37    39    1
    42    37    40    1
