@<TRIPOS>MOLECULE
4_40
 41 43 0 0 0
SMALL
USER_CHARGES
****
From 3DB ct
@<TRIPOS>ATOM
      1 C          26.4060   22.1340   16.4660 C.ar    1  LIG1        0.5176
      2 N          25.4700   21.4550   17.2570 N.ar    1  LIG1       -0.2457
      3 C          26.1990   20.8730   18.2770 C.ar    1  LIG1       -0.1824
      4 H          25.7410   20.2570   19.0380 H       1  LIG1        0.2878
      5 C          27.4990   21.3220   18.1650 C.ar    1  LIG1       -0.2885
      6 N          27.6020   22.1220   17.0400 N.ar    1  LIG1       -0.4591
      7 C          28.6660   21.0410   19.0670 C.3     1  LIG1        1.5196
      8 F          29.1600   22.1760   19.6420 F       1  LIG1       -0.4412
      9 F          29.7070   20.4620   18.4010 F       1  LIG1       -0.4453
     10 F          28.3520   20.1970   20.0930 F       1  LIG1       -0.4769
     11 C          24.0500   21.3690   17.1180 C.ar    1  LIG1        0.4021
     12 C          23.3480   22.2560   16.2890 C.ar    1  LIG1       -0.3545
     13 H          23.8420   23.0630   15.7550 H       1  LIG1        0.2198
     14 C          21.9560   22.1680   16.1730 C.ar    1  LIG1        0.0455
     15 H          21.4290   22.8710   15.5300 H       1  LIG1        0.1922
     16 C          21.2590   21.1930   16.8890 C.ar    1  LIG1       -0.5465
     17 C          21.9410   20.3200   17.7380 C.ar    1  LIG1        0.0239
     18 H          21.4070   19.5630   18.3080 H       1  LIG1        0.1964
     19 C          23.3320   20.4110   17.8540 C.ar    1  LIG1       -0.3142
     20 H          23.8310   19.6950   18.5060 H       1  LIG1        0.2110
     21 S          19.4880   21.0980   16.7580 S.O2    1  LIG1        2.1969
     22 O          18.9780   22.4540   16.5860 O.2     1  LIG1       -0.9672
     23 O          18.9960   20.3080   17.8820 O.2     1  LIG1       -0.9647
     24 C          19.2260   20.1890   15.2580 C.3     1  LIG1       -0.7295
     25 H          18.1500   20.0860   15.1070 H       1  LIG1        0.2428
     26 H          19.6830   19.2020   15.3550 H       1  LIG1        0.1960
     27 H          19.6670   20.7410   14.4250 H       1  LIG1        0.1984
     28 C          26.1800   22.7140   15.1410 C.ar    1  LIG1       -0.5589
     29 C          26.4340   24.0670   14.9030 C.ar    1  LIG1        0.1700
     30 H          26.7790   24.7150   15.7070 H       1  LIG1        0.1792
     31 C          26.2410   24.5970   13.6280 C.ar    1  LIG1       -0.6318
     32 H          26.4280   25.6480   13.4310 H       1  LIG1        0.2300
     33 C          25.8120   23.7500   12.6190 C.ar    1  LIG1        0.9771
     34 N          25.5750   22.4340   12.7980 N.ar    1  LIG1       -0.8361
     35 C          25.7710   21.9460   14.0520 C.ar    1  LIG1        0.5585
     36 H          25.5880   20.8780   14.1560 H       1  LIG1        0.0837
     37 O          25.6360   24.3170   11.3740 O.3     1  LIG1       -0.4763
     38 C          25.9250   25.7140   11.3410 C.3     1  LIG1        0.1061
     39 H          25.7590   26.0640   10.3170 H       1  LIG1        0.1023
     40 H          26.9740   25.9070   11.5940 H       1  LIG1        0.0346
     41 H          25.2510   26.2730   11.9980 H       1  LIG1        0.0272
@<TRIPOS>BOND
     1     1     2   ar
     2     2     3   ar
     3     3     4    1
     4     3     5   ar
     5     5     6   ar
     6     6     1   ar
     7     5     7    1
     8     7     8    1
     9     7     9    1
    10     7    10    1
    11     2    11    1
    12    11    12   ar
    13    12    13    1
    14    12    14   ar
    15    14    15    1
    16    14    16   ar
    17    16    17   ar
    18    17    18    1
    19    17    19   ar
    20    19    20    1
    21    19    11   ar
    22    16    21    1
    23    21    22    2
    24    21    23    2
    25    21    24    1
    26    24    25    1
    27    24    26    1
    28    24    27    1
    29     1    28    1
    30    28    29   ar
    31    29    30    1
    32    29    31   ar
    33    31    32    1
    34    31    33   ar
    35    33    34   ar
    36    34    35   ar
    37    35    36    1
    38    35    28   ar
    39    33    37    1
    40    37    38    1
    41    38    39    1
    42    38    40    1
    43    38    41    1
