@<TRIPOS>MOLECULE
4_42
 37 39 0 0 0
SMALL
USER_CHARGES
****
From 3DB ct
@<TRIPOS>ATOM
      1 C          26.4050   22.1350   16.4650 C.ar    1  LIG1        0.2829
      2 N          25.4690   21.4550   17.2550 N.ar    1  LIG1       -0.0816
      3 C          26.1990   20.8740   18.2760 C.ar    1  LIG1       -0.2505
      4 H          25.7420   20.2570   19.0370 H       1  LIG1        0.2967
      5 C          27.4980   21.3250   18.1640 C.ar    1  LIG1       -0.2035
      6 N          27.6000   22.1250   17.0400 N.ar    1  LIG1       -0.4465
      7 C          28.6650   21.0450   19.0670 C.3     1  LIG1        1.4739
      8 F          29.1470   22.1790   19.6550 F       1  LIG1       -0.4325
      9 F          29.7140   20.4830   18.3980 F       1  LIG1       -0.4385
     10 F          28.3550   20.1880   20.0830 F       1  LIG1       -0.4673
     11 C          24.0490   21.3680   17.1170 C.ar    1  LIG1        0.3486
     12 C          23.3470   22.2560   16.2890 C.ar    1  LIG1       -0.4065
     13 H          23.8400   23.0630   15.7530 H       1  LIG1        0.2363
     14 C          21.9540   22.1680   16.1740 C.ar    1  LIG1        0.0773
     15 H          21.4280   22.8710   15.5310 H       1  LIG1        0.1851
     16 C          21.2590   21.1920   16.8900 C.ar    1  LIG1       -0.5436
     17 C          21.9410   20.3200   17.7380 C.ar    1  LIG1        0.0266
     18 H          21.4070   19.5620   18.3090 H       1  LIG1        0.1949
     19 C          23.3320   20.4100   17.8530 C.ar    1  LIG1       -0.2951
     20 H          23.8310   19.6950   18.5040 H       1  LIG1        0.2063
     21 S          19.4870   21.0980   16.7600 S.O2    1  LIG1        2.1837
     22 O          18.9770   22.4550   16.5900 O.2     1  LIG1       -0.9624
     23 O          18.9960   20.3080   17.8850 O.2     1  LIG1       -0.9584
     24 C          19.2240   20.1890   15.2610 C.3     1  LIG1       -0.7249
     25 H          18.1470   20.0880   15.1110 H       1  LIG1        0.2438
     26 H          19.6800   19.2020   15.3580 H       1  LIG1        0.1950
     27 H          19.6640   20.7410   14.4280 H       1  LIG1        0.1954
     28 C          26.1800   22.7150   15.1390 C.ar    1  LIG1       -0.4246
     29 C          26.4350   24.0710   14.9060 C.ar    1  LIG1        0.5898
     30 H          26.7780   24.7070   15.7200 H       1  LIG1        0.0802
     31 C          26.2450   24.5980   13.6320 C.ar    1  LIG1       -1.1629
     32 C          25.8180   23.7520   12.6190 C.ar    1  LIG1        0.8906
     33 H          25.6560   24.1200   11.6090 H       1  LIG1        0.0151
     34 N          25.5780   22.4270   12.7960 N.ar    1  LIG1       -0.8136
     35 C          25.7730   21.9420   14.0510 C.ar    1  LIG1        0.5593
     36 H          25.5900   20.8740   14.1580 H       1  LIG1        0.0667
     37 BR         26.5670   26.4260   13.2930 Br      1  LIG1        0.2642
@<TRIPOS>BOND
     1     1     2   ar
     2     2     3   ar
     3     3     4    1
     4     3     5   ar
     5     5     6   ar
     6     6     1   ar
     7     5     7    1
     8     7     8    1
     9     7     9    1
    10     7    10    1
    11     2    11    1
    12    11    12   ar
    13    12    13    1
    14    12    14   ar
    15    14    15    1
    16    14    16   ar
    17    16    17   ar
    18    17    18    1
    19    17    19   ar
    20    19    20    1
    21    19    11   ar
    22    16    21    1
    23    21    22    2
    24    21    23    2
    25    21    24    1
    26    24    25    1
    27    24    26    1
    28    24    27    1
    29     1    28    1
    30    28    29   ar
    31    29    30    1
    32    29    31   ar
    33    31    32   ar
    34    32    33    1
    35    32    34   ar
    36    34    35   ar
    37    35    36    1
    38    35    28   ar
    39    31    37    1
