@<TRIPOS>MOLECULE
4_44
 39 41 0 0 0
SMALL
USER_CHARGES
****
From 3DB ct
@<TRIPOS>ATOM
      1 C          26.4120   22.1130   16.4510 C.ar    1  LIG1        0.6167
      2 N          25.4650   21.4830   17.2710 N.ar    1  LIG1       -0.3180
      3 C          26.1900   20.9340   18.3130 C.ar    1  LIG1       -0.1762
      4 H          25.7260   20.3700   19.1100 H       1  LIG1        0.2912
      5 C          27.5050   21.3230   18.1600 C.ar    1  LIG1       -0.2924
      6 N          27.6180   22.0670   17.0000 N.ar    1  LIG1       -0.4738
      7 C          28.6750   21.0380   19.0560 C.3     1  LIG1        1.5238
      8 F          29.1800   22.1720   19.6230 F       1  LIG1       -0.4413
      9 F          29.7080   20.4480   18.3880 F       1  LIG1       -0.4427
     10 F          28.3600   20.2010   20.0880 F       1  LIG1       -0.4795
     11 C          24.0430   21.3920   17.1310 C.ar    1  LIG1        0.4963
     12 C          23.3320   22.2640   16.2940 C.ar    1  LIG1       -0.3858
     13 H          23.8120   23.0740   15.7530 H       1  LIG1        0.2122
     14 C          21.9410   22.1590   16.1710 C.ar    1  LIG1        0.1235
     15 H          21.4090   22.8500   15.5200 H       1  LIG1        0.1909
     16 C          21.2500   21.1790   16.8850 C.ar    1  LIG1       -0.6606
     17 C          21.9390   20.3180   17.7390 C.ar    1  LIG1        0.1239
     18 H          21.4100   19.5540   18.3050 H       1  LIG1        0.1837
     19 C          23.3300   20.4260   17.8620 C.ar    1  LIG1       -0.3784
     20 H          23.8290   19.7140   18.5160 H       1  LIG1        0.2178
     21 S          19.4870   21.0700   16.7540 S.O2    1  LIG1        2.4540
     22 O          18.9410   22.3950   16.5170 O.2     1  LIG1       -0.9895
     23 O          18.9750   20.2460   17.8350 O.2     1  LIG1       -0.9850
     24 N          19.2950   20.1970   15.3380 N.3     1  LIG1       -1.3074
     25 H          18.8010   20.7450   14.6300 H       1  LIG1        0.4901
     26 H          18.8250   19.3050   15.5150 H       1  LIG1        0.4888
     27 C          26.1840   22.6930   15.1260 C.ar    1  LIG1       -0.7037
     28 C          26.4580   24.0520   14.9240 C.ar    1  LIG1        0.2249
     29 H          26.8170   24.6700   15.7460 H       1  LIG1        0.1466
     30 C          26.2640   24.6270   13.6720 C.ar    1  LIG1       -0.4975
     31 H          26.4610   25.6810   13.5030 H       1  LIG1        0.2117
     32 C          25.8130   23.8200   12.6460 C.ar    1  LIG1        0.4022
     33 H          25.6450   24.2300   11.6520 H       1  LIG1        0.1159
     34 N          25.5610   22.4980   12.7880 N.ar    1  LIG1       -0.7468
     35 C          25.7600   21.9430   14.0190 C.ar    1  LIG1        0.8599
     36 C          25.5050   20.4640   14.1080 C.3     1  LIG1       -0.5195
     37 H          24.6000   20.2620   14.6870 H       1  LIG1        0.1239
     38 H          26.3560   19.9490   14.5640 H       1  LIG1        0.1472
     39 H          25.3620   20.0380   13.1090 H       1  LIG1        0.1528
@<TRIPOS>BOND
     1     1     2   ar
     2     2     3   ar
     3     3     4    1
     4     3     5   ar
     5     5     6   ar
     6     6     1   ar
     7     5     7    1
     8     7     8    1
     9     7     9    1
    10     7    10    1
    11     2    11    1
    12    11    12   ar
    13    12    13    1
    14    12    14   ar
    15    14    15    1
    16    14    16   ar
    17    16    17   ar
    18    17    18    1
    19    17    19   ar
    20    19    20    1
    21    19    11   ar
    22    16    21    1
    23    21    22    2
    24    21    23    2
    25    21    24    1
    26    24    25    1
    27    24    26    1
    28     1    27    1
    29    27    28   ar
    30    28    29    1
    31    28    30   ar
    32    30    31    1
    33    30    32   ar
    34    32    33    1
    35    32    34   ar
    36    34    35   ar
    37    35    27   ar
    38    35    36    1
    39    36    37    1
    40    36    38    1
    41    36    39    1
