@<TRIPOS>MOLECULE
4_49
 36 38 0 0 0
SMALL
USER_CHARGES
****
From 3DB ct
@<TRIPOS>ATOM
      1 C          26.4040   22.1350   16.4650 C.ar    1  LIG1        0.3152
      2 N          25.4680   21.4550   17.2550 N.ar    1  LIG1       -0.1432
      3 C          26.1970   20.8750   18.2760 C.ar    1  LIG1       -0.2339
      4 H          25.7400   20.2580   19.0370 H       1  LIG1        0.2905
      5 C          27.4960   21.3260   18.1660 C.ar    1  LIG1       -0.1999
      6 N          27.5990   22.1270   17.0410 N.ar    1  LIG1       -0.4505
      7 C          28.6620   21.0490   19.0700 C.3     1  LIG1        1.4638
      8 F          29.1260   22.1800   19.6780 F       1  LIG1       -0.4313
      9 F          29.7210   20.5090   18.4000 F       1  LIG1       -0.4352
     10 F          28.3580   20.1730   20.0730 F       1  LIG1       -0.4653
     11 C          24.0480   21.3670   17.1160 C.ar    1  LIG1        0.4439
     12 C          23.3460   22.2540   16.2870 C.ar    1  LIG1       -0.4562
     13 H          23.8380   23.0610   15.7510 H       1  LIG1        0.2411
     14 C          21.9530   22.1650   16.1710 C.ar    1  LIG1        0.1575
     15 H          21.4250   22.8660   15.5270 H       1  LIG1        0.1835
     16 C          21.2560   21.1900   16.8860 C.ar    1  LIG1       -0.6528
     17 C          21.9400   20.3170   17.7340 C.ar    1  LIG1        0.0938
     18 H          21.4040   19.5590   18.3020 H       1  LIG1        0.1912
     19 C          23.3320   20.4080   17.8510 C.ar    1  LIG1       -0.3421
     20 H          23.8310   19.6920   18.5010 H       1  LIG1        0.2137
     21 S          19.4900   21.1000   16.7680 S.O2    1  LIG1        2.4655
     22 O          18.9550   22.4310   16.5450 O.2     1  LIG1       -0.9925
     23 O          18.9800   20.2740   17.8490 O.2     1  LIG1       -0.9880
     24 N          19.2780   20.2400   15.3470 N.3     1  LIG1       -1.2947
     25 H          18.7840   20.8000   14.6470 H       1  LIG1        0.4852
     26 H          18.7990   19.3520   15.5210 H       1  LIG1        0.4842
     27 C          26.1810   22.7150   15.1390 C.ar    1  LIG1       -0.4629
     28 C          26.4360   24.0710   14.9070 C.ar    1  LIG1        0.6095
     29 H          26.7780   24.7070   15.7200 H       1  LIG1        0.0759
     30 C          26.2480   24.5980   13.6320 C.ar    1  LIG1       -1.1776
     31 C          25.8230   23.7520   12.6180 C.ar    1  LIG1        0.9049
     32 H          25.6620   24.1210   11.6080 H       1  LIG1        0.0136
     33 N          25.5830   22.4270   12.7940 N.ar    1  LIG1       -0.8243
     34 C          25.7750   21.9420   14.0500 C.ar    1  LIG1        0.5867
     35 H          25.5920   20.8740   14.1570 H       1  LIG1        0.0672
     36 BR         26.5700   26.4260   13.2940 Br      1  LIG1        0.2635
@<TRIPOS>BOND
     1     1     2   ar
     2     2     3   ar
     3     3     4    1
     4     3     5   ar
     5     5     6   ar
     6     6     1   ar
     7     5     7    1
     8     7     8    1
     9     7     9    1
    10     7    10    1
    11     2    11    1
    12    11    12   ar
    13    12    13    1
    14    12    14   ar
    15    14    15    1
    16    14    16   ar
    17    16    17   ar
    18    17    18    1
    19    17    19   ar
    20    19    20    1
    21    19    11   ar
    22    16    21    1
    23    21    22    2
    24    21    23    2
    25    21    24    1
    26    24    25    1
    27    24    26    1
    28     1    27    1
    29    27    28   ar
    30    28    29    1
    31    28    30   ar
    32    30    31   ar
    33    31    32    1
    34    31    33   ar
    35    33    34   ar
    36    34    35    1
    37    34    27   ar
    38    30    36    1
