@<TRIPOS>MOLECULE
4_53
 40 42 0 0 0
SMALL
USER_CHARGES
****
From 3DB ct
@<TRIPOS>ATOM
      1 C          26.4220   22.1490   16.4640 C.ar    1  LIG1        0.3601
      2 N          25.4810   21.4540   17.2330 N.ar    1  LIG1       -0.1655
      3 C          26.2040   20.8520   18.2480 C.ar    1  LIG1       -0.1328
      4 H          25.7410   20.2280   18.9990 H       1  LIG1        0.2764
      5 C          27.5100   21.2830   18.1420 C.ar    1  LIG1       -0.3083
      6 N          27.6220   22.1020   17.0340 N.ar    1  LIG1       -0.4470
      7 C          28.6750   20.9650   19.0340 C.3     1  LIG1        1.5147
      8 F          29.1640   22.0740   19.6610 F       1  LIG1       -0.4407
      9 F          29.7190   20.4190   18.3450 F       1  LIG1       -0.4408
     10 F          28.3600   20.0760   20.0200 F       1  LIG1       -0.4777
     11 C          24.0580   21.3720   17.0930 C.ar    1  LIG1        0.2127
     12 C          23.3530   22.2600   16.2670 C.ar    1  LIG1       -0.1712
     13 H          23.8440   23.0610   15.7220 H       1  LIG1        0.1618
     14 C          21.9590   22.1770   16.1560 C.ar    1  LIG1       -0.0189
     15 H          21.4340   22.8810   15.5140 H       1  LIG1        0.1956
     16 C          21.2620   21.2040   16.8730 C.ar    1  LIG1       -0.5030
     17 C          21.9440   20.3280   17.7180 C.ar    1  LIG1       -0.0383
     18 H          21.4100   19.5720   18.2890 H       1  LIG1        0.1993
     19 C          23.3370   20.4140   17.8280 C.ar    1  LIG1       -0.2018
     20 H          23.8330   19.6940   18.4760 H       1  LIG1        0.1895
     21 S          19.4910   21.1130   16.7470 S.O2    1  LIG1        2.1880
     22 O          18.9830   22.4710   16.5790 O.2     1  LIG1       -0.9690
     23 O          19.0000   20.3230   17.8720 O.2     1  LIG1       -0.9645
     24 C          19.2220   20.2070   15.2470 C.3     1  LIG1       -0.7244
     25 H          18.1450   20.1080   15.0990 H       1  LIG1        0.2396
     26 H          19.6770   19.2190   15.3420 H       1  LIG1        0.1948
     27 H          19.6620   20.7590   14.4140 H       1  LIG1        0.1922
     28 C          26.1770   22.7670   15.1540 C.ar    1  LIG1        0.3875
     29 C          26.4020   24.1260   14.9070 C.ar    1  LIG1       -0.1292
     30 C          26.1800   24.5900   13.6050 C.ar    1  LIG1        0.0669
     31 H          26.3430   25.6370   13.3530 H       1  LIG1        0.1502
     32 C          25.7460   23.7130   12.6170 C.ar    1  LIG1       -0.4493
     33 H          25.5650   24.0570   11.6030 H       1  LIG1        0.2153
     34 C          25.5540   22.3860   12.9550 C.ar    1  LIG1        0.3242
     35 H          25.2190   21.6680   12.2100 H       1  LIG1        0.1180
     36 N          25.7650   21.8920   14.1950 N.ar    1  LIG1       -0.6467
     37 C          26.8840   25.0730   15.9670 C.3     1  LIG1       -0.2405
     38 H          27.9370   24.8800   16.1980 H       1  LIG1        0.1120
     39 H          26.2860   24.9730   16.8790 H       1  LIG1        0.0884
     40 H          26.7960   26.1140   15.6400 H       1  LIG1        0.0826
@<TRIPOS>BOND
     1     1     2   ar
     2     2     3   ar
     3     3     4    1
     4     3     5   ar
     5     5     6   ar
     6     6     1   ar
     7     5     7    1
     8     7     8    1
     9     7     9    1
    10     7    10    1
    11     2    11    1
    12    11    12   ar
    13    12    13    1
    14    12    14   ar
    15    14    15    1
    16    14    16   ar
    17    16    17   ar
    18    17    18    1
    19    17    19   ar
    20    19    20    1
    21    19    11   ar
    22    16    21    1
    23    21    22    2
    24    21    23    2
    25    21    24    1
    26    24    25    1
    27    24    26    1
    28    24    27    1
    29     1    28    1
    30    28    29   ar
    31    29    30   ar
    32    30    31    1
    33    30    32   ar
    34    32    33    1
    35    32    34   ar
    36    34    35    1
    37    34    36   ar
    38    36    28   ar
    39    29    37    1
    40    37    38    1
    41    37    39    1
    42    37    40    1
