@<TRIPOS>MOLECULE
4_54
 39 41 0 0 0
SMALL
USER_CHARGES
****
From 3DB ct
@<TRIPOS>ATOM
      1 C          26.4120   22.1500   16.4570 C.ar    1  LIG1        0.3468
      2 N          25.4750   21.4490   17.2250 N.ar    1  LIG1       -0.2094
      3 C          26.2000   20.8530   18.2420 C.ar    1  LIG1       -0.1296
      4 H          25.7410   20.2170   18.9870 H       1  LIG1        0.2691
      5 C          27.4970   21.3160   18.1540 C.ar    1  LIG1       -0.2740
      6 N          27.6030   22.1420   17.0490 N.ar    1  LIG1       -0.4685
      7 C          28.6560   21.0260   19.0630 C.3     1  LIG1        1.4840
      8 F          29.1230   22.1500   19.6800 F       1  LIG1       -0.4351
      9 F          29.7160   20.4850   18.3940 F       1  LIG1       -0.4346
     10 F          28.3420   20.1450   20.0580 F       1  LIG1       -0.4721
     11 C          24.0520   21.3630   17.0900 C.ar    1  LIG1        0.3478
     12 C          23.3460   22.2530   16.2680 C.ar    1  LIG1       -0.2677
     13 H          23.8400   23.0520   15.7210 H       1  LIG1        0.1775
     14 C          21.9520   22.1710   16.1620 C.ar    1  LIG1        0.0989
     15 H          21.4230   22.8730   15.5210 H       1  LIG1        0.1814
     16 C          21.2560   21.1980   16.8820 C.ar    1  LIG1       -0.6253
     17 C          21.9420   20.3220   17.7230 C.ar    1  LIG1        0.0547
     18 H          21.4080   19.5650   18.2930 H       1  LIG1        0.1916
     19 C          23.3350   20.4060   17.8290 C.ar    1  LIG1       -0.2830
     20 H          23.8350   19.6860   18.4740 H       1  LIG1        0.2030
     21 S          19.4890   21.1150   16.7740 S.O2    1  LIG1        2.4554
     22 O          18.9580   22.4480   16.5550 O.2     1  LIG1       -0.9964
     23 O          18.9820   20.2890   17.8550 O.2     1  LIG1       -0.9905
     24 N          19.2660   20.2570   15.3530 N.3     1  LIG1       -1.2972
     25 H          18.7700   20.8190   14.6560 H       1  LIG1        0.4837
     26 H          18.7860   19.3700   15.5280 H       1  LIG1        0.4838
     27 C          26.1800   22.7460   15.1370 C.ar    1  LIG1        0.4745
     28 C          26.4300   24.0930   14.9060 C.ar    1  LIG1       -0.4881
     29 H          26.7770   24.7420   15.7040 H       1  LIG1        0.2449
     30 C          26.2210   24.5960   13.6260 C.ar    1  LIG1        0.1760
     31 H          26.4010   25.6480   13.4150 H       1  LIG1        0.1292
     32 C          25.7840   23.7420   12.6190 C.ar    1  LIG1       -0.5565
     33 H          25.6140   24.1210   11.6150 H       1  LIG1        0.2377
     34 C          25.5730   22.4010   12.9210 C.ar    1  LIG1        0.6283
     35 N          25.7760   21.8920   14.1610 N.ar    1  LIG1       -0.6986
     36 C          25.1010   21.4570   11.8550 C.3     1  LIG1       -0.3530
     37 H          24.9800   20.4460   12.2580 H       1  LIG1        0.1135
     38 H          25.8270   21.4150   11.0380 H       1  LIG1        0.1031
     39 H          24.1330   21.7840   11.4620 H       1  LIG1        0.0944
@<TRIPOS>BOND
     1     1     2   ar
     2     2     3   ar
     3     3     4    1
     4     3     5   ar
     5     5     6   ar
     6     6     1   ar
     7     5     7    1
     8     7     8    1
     9     7     9    1
    10     7    10    1
    11     2    11    1
    12    11    12   ar
    13    12    13    1
    14    12    14   ar
    15    14    15    1
    16    14    16   ar
    17    16    17   ar
    18    17    18    1
    19    17    19   ar
    20    19    20    1
    21    19    11   ar
    22    16    21    1
    23    21    22    2
    24    21    23    2
    25    21    24    1
    26    24    25    1
    27    24    26    1
    28     1    27    1
    29    27    28   ar
    30    28    29    1
    31    28    30   ar
    32    30    31    1
    33    30    32   ar
    34    32    33    1
    35    32    34   ar
    36    34    35   ar
    37    35    27   ar
    38    34    36    1
    39    36    37    1
    40    36    38    1
    41    36    39    1
