@<TRIPOS>MOLECULE
4_55
 39 41 0 0 0
SMALL
USER_CHARGES
****
From 3DB ct
@<TRIPOS>ATOM
      1 C          26.4110   22.1490   16.4560 C.ar    1  LIG1        0.2815
      2 N          25.4740   21.4480   17.2240 N.ar    1  LIG1       -0.1599
      3 C          26.1990   20.8560   18.2440 C.ar    1  LIG1       -0.1333
      4 H          25.7400   20.2220   18.9900 H       1  LIG1        0.2694
      5 C          27.4950   21.3200   18.1560 C.ar    1  LIG1       -0.2705
      6 N          27.6010   22.1440   17.0500 N.ar    1  LIG1       -0.4611
      7 C          28.6530   21.0350   19.0680 C.3     1  LIG1        1.4796
      8 F          29.1160   22.1630   19.6820 F       1  LIG1       -0.4342
      9 F          29.7150   20.4940   18.4030 F       1  LIG1       -0.4340
     10 F          28.3390   20.1570   20.0650 F       1  LIG1       -0.4712
     11 C          24.0520   21.3610   17.0880 C.ar    1  LIG1        0.2847
     12 C          23.3440   22.2510   16.2660 C.ar    1  LIG1       -0.2223
     13 H          23.8370   23.0500   15.7190 H       1  LIG1        0.1674
     14 C          21.9500   22.1700   16.1630 C.ar    1  LIG1        0.0744
     15 H          21.4210   22.8720   15.5220 H       1  LIG1        0.1863
     16 C          21.2540   21.1980   16.8830 C.ar    1  LIG1       -0.6131
     17 C          21.9410   20.3200   17.7220 C.ar    1  LIG1        0.0441
     18 H          21.4070   19.5630   18.2930 H       1  LIG1        0.1929
     19 C          23.3350   20.4030   17.8260 C.ar    1  LIG1       -0.2573
     20 H          23.8340   19.6820   18.4700 H       1  LIG1        0.1978
     21 S          19.4870   21.1150   16.7800 S.O2    1  LIG1        2.4596
     22 O          18.9550   22.4490   16.5630 O.2     1  LIG1       -0.9979
     23 O          18.9840   20.2900   17.8650 O.2     1  LIG1       -0.9919
     24 N          19.2580   20.2570   15.3600 N.3     1  LIG1       -1.3017
     25 H          18.7610   20.8200   14.6650 H       1  LIG1        0.4852
     26 H          18.7770   19.3720   15.5370 H       1  LIG1        0.4849
     27 C          26.1800   22.7440   15.1360 C.ar    1  LIG1        0.5566
     28 C          26.4280   24.0920   14.9070 C.ar    1  LIG1       -0.5257
     29 H          26.7670   24.7410   15.7090 H       1  LIG1        0.2581
     30 C          26.2280   24.6010   13.6260 C.ar    1  LIG1        0.0861
     31 H          26.4030   25.6580   13.4340 H       1  LIG1        0.1565
     32 C          25.8110   23.7500   12.6010 C.ar    1  LIG1       -0.1114
     33 C          25.5930   22.4160   12.9230 C.ar    1  LIG1        0.2519
     34 H          25.2520   21.7070   12.1700 H       1  LIG1        0.1471
     35 N          25.7800   21.8920   14.1590 N.ar    1  LIG1       -0.6712
     36 C          25.5490   24.2660   11.2210 C.3     1  LIG1       -0.3718
     37 H          25.7500   23.4930   10.4710 H       1  LIG1        0.1178
     38 H          26.2000   25.1170   10.9920 H       1  LIG1        0.1210
     39 H          24.5060   24.5850   11.1310 H       1  LIG1        0.1254
@<TRIPOS>BOND
     1     1     2   ar
     2     2     3   ar
     3     3     4    1
     4     3     5   ar
     5     5     6   ar
     6     6     1   ar
     7     5     7    1
     8     7     8    1
     9     7     9    1
    10     7    10    1
    11     2    11    1
    12    11    12   ar
    13    12    13    1
    14    12    14   ar
    15    14    15    1
    16    14    16   ar
    17    16    17   ar
    18    17    18    1
    19    17    19   ar
    20    19    20    1
    21    19    11   ar
    22    16    21    1
    23    21    22    2
    24    21    23    2
    25    21    24    1
    26    24    25    1
    27    24    26    1
    28     1    27    1
    29    27    28   ar
    30    28    29    1
    31    28    30   ar
    32    30    31    1
    33    30    32   ar
    34    32    33   ar
    35    33    34    1
    36    33    35   ar
    37    35    27   ar
    38    32    36    1
    39    36    37    1
    40    36    38    1
    41    36    39    1
