@<TRIPOS>MOLECULE
4_57
 39 41 0 0 0
SMALL
USER_CHARGES
****
From 3DB ct
@<TRIPOS>ATOM
      1 C          26.4210   22.1490   16.4640 C.ar    1  LIG1        0.4316
      2 N          25.4790   21.4540   17.2310 N.ar    1  LIG1       -0.2612
      3 C          26.2020   20.8530   18.2480 C.ar    1  LIG1       -0.1026
      4 H          25.7380   20.2290   18.9990 H       1  LIG1        0.2669
      5 C          27.5070   21.2860   18.1440 C.ar    1  LIG1       -0.3078
      6 N          27.6200   22.1050   17.0360 N.ar    1  LIG1       -0.4603
      7 C          28.6700   20.9710   19.0400 C.3     1  LIG1        1.5073
      8 F          29.1550   22.0820   19.6670 F       1  LIG1       -0.4397
      9 F          29.7180   20.4270   18.3550 F       1  LIG1       -0.4380
     10 F          28.3540   20.0820   20.0260 F       1  LIG1       -0.4771
     11 C          24.0570   21.3700   17.0900 C.ar    1  LIG1        0.3274
     12 C          23.3520   22.2580   16.2640 C.ar    1  LIG1       -0.2285
     13 H          23.8420   23.0590   15.7190 H       1  LIG1        0.1644
     14 C          21.9580   22.1750   16.1530 C.ar    1  LIG1        0.0711
     15 H          21.4310   22.8770   15.5100 H       1  LIG1        0.1882
     16 C          21.2590   21.2020   16.8690 C.ar    1  LIG1       -0.6163
     17 C          21.9430   20.3250   17.7120 C.ar    1  LIG1        0.0417
     18 H          21.4070   19.5670   18.2800 H       1  LIG1        0.1943
     19 C          23.3360   20.4110   17.8230 C.ar    1  LIG1       -0.2592
     20 H          23.8320   19.6900   18.4700 H       1  LIG1        0.1994
     21 S          19.4930   21.1160   16.7580 S.O2    1  LIG1        2.4596
     22 O          18.9600   22.4490   16.5400 O.2     1  LIG1       -0.9973
     23 O          18.9860   20.2890   17.8400 O.2     1  LIG1       -0.9909
     24 N          19.2730   20.2600   15.3360 N.3     1  LIG1       -1.2991
     25 H          18.7770   20.8230   14.6390 H       1  LIG1        0.4846
     26 H          18.7920   19.3730   15.5100 H       1  LIG1        0.4844
     27 C          26.1780   22.7670   15.1540 C.ar    1  LIG1        0.3444
     28 C          26.4040   24.1270   14.9070 C.ar    1  LIG1       -0.1221
     29 C          26.1830   24.5900   13.6050 C.ar    1  LIG1        0.0704
     30 H          26.3470   25.6370   13.3520 H       1  LIG1        0.1472
     31 C          25.7510   23.7130   12.6160 C.ar    1  LIG1       -0.4527
     32 H          25.5720   24.0570   11.6020 H       1  LIG1        0.2150
     33 C          25.5590   22.3870   12.9540 C.ar    1  LIG1        0.3399
     34 H          25.2240   21.6680   12.2090 H       1  LIG1        0.1147
     35 N          25.7680   21.8930   14.1950 N.ar    1  LIG1       -0.6392
     36 C          26.8840   25.0730   15.9680 C.3     1  LIG1       -0.2376
     37 H          27.9360   24.8810   16.2000 H       1  LIG1        0.1106
     38 H          26.2840   24.9730   16.8780 H       1  LIG1        0.0849
     39 H          26.7960   26.1150   15.6400 H       1  LIG1        0.0817
@<TRIPOS>BOND
     1     1     2   ar
     2     2     3   ar
     3     3     4    1
     4     3     5   ar
     5     5     6   ar
     6     6     1   ar
     7     5     7    1
     8     7     8    1
     9     7     9    1
    10     7    10    1
    11     2    11    1
    12    11    12   ar
    13    12    13    1
    14    12    14   ar
    15    14    15    1
    16    14    16   ar
    17    16    17   ar
    18    17    18    1
    19    17    19   ar
    20    19    20    1
    21    19    11   ar
    22    16    21    1
    23    21    22    2
    24    21    23    2
    25    21    24    1
    26    24    25    1
    27    24    26    1
    28     1    27    1
    29    27    28   ar
    30    28    29   ar
    31    29    30    1
    32    29    31   ar
    33    31    32    1
    34    31    33   ar
    35    33    34    1
    36    33    35   ar
    37    35    27   ar
    38    28    36    1
    39    36    37    1
    40    36    38    1
    41    36    39    1
