@<TRIPOS>MOLECULE
4_58
 37 39 0 0 0
SMALL
USER_CHARGES
****
From 3DB ct
@<TRIPOS>ATOM
      1 C          26.4070   22.1340   16.4660 C.ar    1  LIG1        0.2983
      2 N          25.4700   21.4560   17.2560 N.ar    1  LIG1       -0.0650
      3 C          26.1990   20.8740   18.2770 C.ar    1  LIG1       -0.3891
      4 H          25.7400   20.2570   19.0380 H       1  LIG1        0.3105
      5 C          27.4960   21.3240   18.1620 C.ar    1  LIG1       -0.1279
      6 N          27.6020   22.1220   17.0410 N.ar    1  LIG1       -0.3741
      7 C          28.6620   21.0460   19.0580 C.3     1  LIG1        1.0234
      8 H          28.4010   20.3850   19.8880 H       1  LIG1       -0.0227
      9 F          29.1720   22.2060   19.5740 F       1  LIG1       -0.4292
     10 F          29.6920   20.4770   18.3600 F       1  LIG1       -0.4296
     11 C          24.0500   21.3690   17.1170 C.ar    1  LIG1        0.3614
     12 C          23.3470   22.2560   16.2880 C.ar    1  LIG1       -0.3786
     13 H          23.8410   23.0620   15.7520 H       1  LIG1        0.2300
     14 C          21.9550   22.1680   16.1730 C.ar    1  LIG1        0.0577
     15 H          21.4290   22.8710   15.5300 H       1  LIG1        0.1902
     16 C          21.2590   21.1930   16.8890 C.ar    1  LIG1       -0.5488
     17 C          21.9410   20.3200   17.7370 C.ar    1  LIG1        0.0161
     18 H          21.4070   19.5630   18.3080 H       1  LIG1        0.1950
     19 C          23.3320   20.4100   17.8530 C.ar    1  LIG1       -0.2954
     20 H          23.8310   19.6950   18.5040 H       1  LIG1        0.2017
     21 S          19.4880   21.0980   16.7580 S.O2    1  LIG1        2.1944
     22 O          18.9780   22.4550   16.5870 O.2     1  LIG1       -0.9678
     23 O          18.9950   20.3080   17.8830 O.2     1  LIG1       -0.9658
     24 C          19.2250   20.1890   15.2590 C.3     1  LIG1       -0.7228
     25 H          18.1480   20.0870   15.1080 H       1  LIG1        0.2405
     26 H          19.6820   19.2020   15.3560 H       1  LIG1        0.1941
     27 H          19.6660   20.7410   14.4260 H       1  LIG1        0.1946
     28 C          26.1810   22.7140   15.1400 C.ar    1  LIG1       -0.4680
     29 C          26.4350   24.0680   14.9020 C.ar    1  LIG1        0.2199
     30 H          26.7810   24.7140   15.7060 H       1  LIG1        0.1438
     31 C          26.2410   24.5980   13.6270 C.ar    1  LIG1       -0.5182
     32 H          26.4250   25.6490   13.4260 H       1  LIG1        0.2162
     33 C          25.8110   23.7530   12.6190 C.ar    1  LIG1        0.4510
     34 H          25.6490   24.1310   11.6110 H       1  LIG1        0.0962
     35 N          25.5730   22.4320   12.7990 N.ar    1  LIG1       -0.7358
     36 C          25.7700   21.9450   14.0530 C.ar    1  LIG1        0.5516
     37 H          25.5860   20.8770   14.1590 H       1  LIG1        0.0524
@<TRIPOS>BOND
     1     1     2   ar
     2     2     3   ar
     3     3     4    1
     4     3     5   ar
     5     5     6   ar
     6     6     1   ar
     7     5     7    1
     8     7     8    1
     9     7     9    1
    10     7    10    1
    11     2    11    1
    12    11    12   ar
    13    12    13    1
    14    12    14   ar
    15    14    15    1
    16    14    16   ar
    17    16    17   ar
    18    17    18    1
    19    17    19   ar
    20    19    20    1
    21    19    11   ar
    22    16    21    1
    23    21    22    2
    24    21    23    2
    25    21    24    1
    26    24    25    1
    27    24    26    1
    28    24    27    1
    29     1    28    1
    30    28    29   ar
    31    29    30    1
    32    29    31   ar
    33    31    32    1
    34    31    33   ar
    35    33    34    1
    36    33    35   ar
    37    35    36   ar
    38    36    37    1
    39    36    28   ar
