@<TRIPOS>MOLECULE
5_1a
 39 41 0 0 0
SMALL
USER_CHARGES
****
From 3DB ct
@<TRIPOS>ATOM
      1 C          26.3820   22.0700   16.4150 C.2     1  LIG1        0.0611
      2 C          25.4950   21.4960   17.2530 C.2     1  LIG1       -0.1726
      3 C          26.1780   20.9470   18.4750 C.3     1  LIG1       -0.0511
      4 H          25.8680   19.9300   18.7340 H       1  LIG1        0.0453
      5 H          25.9950   21.6010   19.3350 H       1  LIG1        0.0747
      6 C          27.6510   20.9630   18.0770 C.3     1  LIG1       -0.0933
      7 H          27.9340   19.9850   17.6660 H       1  LIG1        0.0599
      8 H          28.3080   21.1610   18.9290 H       1  LIG1        0.0392
      9 C          27.7700   22.0310   16.9960 C.3     1  LIG1       -0.1302
     10 H          28.0350   23.0000   17.4310 H       1  LIG1        0.0920
     11 H          28.5290   21.7500   16.2590 H       1  LIG1        0.0633
     12 C          24.0380   21.3840   17.1150 C.ar    1  LIG1        0.2118
     13 C          23.3300   22.2610   16.2790 C.ar    1  LIG1       -0.2086
     14 H          23.8550   23.0310   15.7160 H       1  LIG1        0.1576
     15 C          21.9400   22.1690   16.1570 C.ar    1  LIG1       -0.0376
     16 H          21.4150   22.8580   15.4990 H       1  LIG1        0.1902
     17 C          21.2470   21.2020   16.8870 C.ar    1  LIG1       -0.5001
     18 C          21.9340   20.3200   17.7230 C.ar    1  LIG1       -0.0146
     19 H          21.4040   19.5560   18.2880 H       1  LIG1        0.1761
     20 C          23.3240   20.4180   17.8390 C.ar    1  LIG1       -0.2843
     21 H          23.8440   19.7180   18.4910 H       1  LIG1        0.2115
     22 S          19.4820   21.0700   16.7190 S.O2    1  LIG1        2.1765
     23 O          18.9450   22.4150   16.5350 O.2     1  LIG1       -0.9704
     24 O          18.9840   20.2710   17.8350 O.2     1  LIG1       -0.9706
     25 C          19.2690   20.1560   15.2150 C.3     1  LIG1       -0.7136
     26 H          18.1980   20.0350   15.0410 H       1  LIG1        0.2334
     27 H          19.7400   19.1770   15.3240 H       1  LIG1        0.1870
     28 H          19.7190   20.7140   14.3930 H       1  LIG1        0.1848
     29 C          26.1550   22.6990   15.1080 C.ar    1  LIG1       -0.0489
     30 C          26.4190   24.0650   14.9210 C.ar    1  LIG1       -0.0737
     31 H          26.7700   24.6810   15.7470 H       1  LIG1        0.1558
     32 C          26.2220   24.6660   13.6750 C.ar    1  LIG1       -0.3880
     33 H          26.4210   25.7250   13.5370 H       1  LIG1        0.2281
     34 C          25.7680   23.9010   12.6090 C.ar    1  LIG1        0.5744
     35 C          25.5110   22.5450   12.7640 C.ar    1  LIG1       -0.4083
     36 H          25.1630   21.9580   11.9190 H       1  LIG1        0.2312
     37 C          25.7080   21.9450   14.0110 C.ar    1  LIG1       -0.0724
     38 H          25.5170   20.8780   14.1130 H       1  LIG1        0.1521
     39 F          25.5800   24.4770   11.4140 F       1  LIG1       -0.3677
@<TRIPOS>BOND
     1     1     2    2
     2     2     3    1
     3     3     4    1
     4     3     5    1
     5     3     6    1
     6     6     7    1
     7     6     8    1
     8     6     9    1
     9     9    10    1
    10     9    11    1
    11     9     1    1
    12     2    12    1
    13    12    13   ar
    14    13    14    1
    15    13    15   ar
    16    15    16    1
    17    15    17   ar
    18    17    18   ar
    19    18    19    1
    20    18    20   ar
    21    20    21    1
    22    20    12   ar
    23    17    22    1
    24    22    23    2
    25    22    24    2
    26    22    25    1
    27    25    26    1
    28    25    27    1
    29    25    28    1
    30     1    29    1
    31    29    30   ar
    32    30    31    1
    33    30    32   ar
    34    32    33    1
    35    32    34   ar
    36    34    35   ar
    37    35    36    1
    38    35    37   ar
    39    37    38    1
    40    37    29   ar
    41    34    39    1
