@<TRIPOS>MOLECULE
5_1b
 43 45 0 0 0
SMALL
USER_CHARGES
****
From 3DB ct
@<TRIPOS>ATOM
      1 C          26.3810   22.0710   16.4160 C.2     1  LIG1        0.1492
      2 C          25.4940   21.4970   17.2540 C.2     1  LIG1       -0.2514
      3 C          26.1790   20.9440   18.4750 C.3     1  LIG1       -0.0374
      4 H          25.8660   19.9280   18.7320 H       1  LIG1        0.0433
      5 H          25.9990   21.5970   19.3360 H       1  LIG1        0.0708
      6 C          27.6500   20.9570   18.0740 C.3     1  LIG1       -0.0996
      7 H          27.9300   19.9800   17.6600 H       1  LIG1        0.0597
      8 H          28.3100   21.1520   18.9250 H       1  LIG1        0.0373
      9 C          27.7700   22.0260   16.9940 C.3     1  LIG1       -0.1368
     10 H          28.0390   22.9950   17.4300 H       1  LIG1        0.0928
     11 H          28.5270   21.7440   16.2550 H       1  LIG1        0.0634
     12 C          24.0380   21.3860   17.1190 C.ar    1  LIG1        0.2752
     13 C          23.3300   22.2630   16.2820 C.ar    1  LIG1       -0.2411
     14 H          23.8560   23.0320   15.7180 H       1  LIG1        0.1712
     15 C          21.9400   22.1690   16.1590 C.ar    1  LIG1       -0.0193
     16 H          21.4150   22.8570   15.5000 H       1  LIG1        0.1870
     17 C          21.2480   21.2010   16.8880 C.ar    1  LIG1       -0.5176
     18 C          21.9340   20.3200   17.7260 C.ar    1  LIG1       -0.0075
     19 H          21.4050   19.5570   18.2920 H       1  LIG1        0.1706
     20 C          23.3250   20.4200   17.8430 C.ar    1  LIG1       -0.3003
     21 H          23.8450   19.7200   18.4950 H       1  LIG1        0.2122
     22 S          19.4830   21.0690   16.7130 S.O2    1  LIG1        2.1890
     23 O          18.9470   22.4110   16.5090 O.2     1  LIG1       -0.9764
     24 O          18.9820   20.2850   17.8380 O.2     1  LIG1       -0.9766
     25 C          19.2770   20.1370   15.2200 C.3     1  LIG1       -0.7157
     26 H          18.2060   20.0200   15.0390 H       1  LIG1        0.2316
     27 H          19.7430   19.1570   15.3440 H       1  LIG1        0.1888
     28 H          19.7360   20.6840   14.3930 H       1  LIG1        0.1851
     29 C          26.1530   22.7010   15.1090 C.ar    1  LIG1       -0.1912
     30 C          26.4160   24.0630   14.9200 C.ar    1  LIG1       -0.0689
     31 H          26.7650   24.6820   15.7440 H       1  LIG1        0.1483
     32 C          26.2200   24.6610   13.6710 C.ar    1  LIG1       -0.3507
     33 H          26.4250   25.7230   13.5510 H       1  LIG1        0.1742
     34 C          25.7650   23.9100   12.5840 C.ar    1  LIG1        0.5030
     35 C          25.5140   22.5510   12.7590 C.ar    1  LIG1       -0.4698
     36 H          25.1670   21.9190   11.9450 H       1  LIG1        0.2216
     37 C          25.7100   21.9530   14.0110 C.ar    1  LIG1        0.0547
     38 H          25.5210   20.8850   14.1110 H       1  LIG1        0.1185
     39 O          25.6160   24.6140   11.4220 O.3     1  LIG1       -0.4484
     40 C          25.9320   26.0050   11.4690 C.3     1  LIG1        0.1188
     41 H          25.7710   26.4160   10.4670 H       1  LIG1        0.0781
     42 H          26.9840   26.1600   11.7290 H       1  LIG1        0.0331
     43 H          25.2680   26.5350   12.1590 H       1  LIG1        0.0313
@<TRIPOS>BOND
     1     1     2    2
     2     2     3    1
     3     3     4    1
     4     3     5    1
     5     3     6    1
     6     6     7    1
     7     6     8    1
     8     6     9    1
     9     9    10    1
    10     9    11    1
    11     9     1    1
    12     2    12    1
    13    12    13   ar
    14    13    14    1
    15    13    15   ar
    16    15    16    1
    17    15    17   ar
    18    17    18   ar
    19    18    19    1
    20    18    20   ar
    21    20    21    1
    22    20    12   ar
    23    17    22    1
    24    22    23    2
    25    22    24    2
    26    22    25    1
    27    25    26    1
    28    25    27    1
    29    25    28    1
    30     1    29    1
    31    29    30   ar
    32    30    31    1
    33    30    32   ar
    34    32    33    1
    35    32    34   ar
    36    34    35   ar
    37    35    36    1
    38    35    37   ar
    39    37    38    1
    40    37    29   ar
    41    34    39    1
    42    39    40    1
    43    40    41    1
    44    40    42    1
    45    40    43    1
