@<TRIPOS>MOLECULE
5_1i
 43 45 0 0 0
SMALL
USER_CHARGES
****
From 3DB ct
@<TRIPOS>ATOM
      1 C          26.3800   22.0710   16.4150 C.2     1  LIG1        0.0437
      2 C          25.4920   21.4970   17.2510 C.2     1  LIG1       -0.1707
      3 C          26.1740   20.9470   18.4740 C.3     1  LIG1       -0.0343
      4 H          25.8620   19.9310   18.7330 H       1  LIG1        0.0399
      5 H          25.9910   21.6010   19.3340 H       1  LIG1        0.0709
      6 C          27.6460   20.9610   18.0770 C.3     1  LIG1       -0.1316
      7 H          27.9290   19.9830   17.6650 H       1  LIG1        0.0674
      8 H          28.3040   21.1580   18.9300 H       1  LIG1        0.0456
      9 C          27.7670   22.0300   16.9970 C.3     1  LIG1       -0.1068
     10 H          28.0330   22.9990   17.4330 H       1  LIG1        0.0917
     11 H          28.5270   21.7490   16.2600 H       1  LIG1        0.0640
     12 C          24.0350   21.3830   17.1150 C.ar    1  LIG1        0.2163
     13 C          23.3250   22.2590   16.2790 C.ar    1  LIG1       -0.2106
     14 H          23.8490   23.0280   15.7140 H       1  LIG1        0.1585
     15 C          21.9350   22.1670   16.1600 C.ar    1  LIG1       -0.0474
     16 H          21.4080   22.8550   15.5030 H       1  LIG1        0.1912
     17 C          21.2430   21.1990   16.8920 C.ar    1  LIG1       -0.4882
     18 C          21.9320   20.3170   17.7260 C.ar    1  LIG1       -0.0185
     19 H          21.4040   19.5530   18.2930 H       1  LIG1        0.1746
     20 C          23.3230   20.4170   17.8400 C.ar    1  LIG1       -0.2888
     21 H          23.8440   19.7170   18.4910 H       1  LIG1        0.2124
     22 S          19.4780   21.0660   16.7290 S.O2    1  LIG1        2.1659
     23 O          18.9390   22.4120   16.5550 O.2     1  LIG1       -0.9690
     24 O          18.9850   20.2590   17.8400 O.2     1  LIG1       -0.9694
     25 C          19.2620   20.1620   15.2190 C.3     1  LIG1       -0.7201
     26 H          18.1900   20.0400   15.0470 H       1  LIG1        0.2347
     27 H          19.7350   19.1830   15.3190 H       1  LIG1        0.1904
     28 H          19.7080   20.7270   14.3990 H       1  LIG1        0.1837
     29 C          26.1560   22.7010   15.1060 C.ar    1  LIG1        0.0093
     30 C          26.4220   24.0640   14.9180 C.ar    1  LIG1       -0.1730
     31 H          26.7700   24.6810   15.7460 H       1  LIG1        0.1461
     32 C          26.2340   24.6670   13.6700 C.ar    1  LIG1       -0.1389
     33 H          26.4480   25.7290   13.5560 H       1  LIG1        0.1782
     34 C          25.7780   23.9190   12.5780 C.ar    1  LIG1        0.0429
     35 C          25.5330   22.5520   12.7550 C.ar    1  LIG1       -0.2965
     36 H          25.1980   21.9410   11.9180 H       1  LIG1        0.1847
     37 C          25.7210   21.9510   14.0050 C.ar    1  LIG1       -0.0977
     38 H          25.5340   20.8830   14.1030 H       1  LIG1        0.1334
     39 C          25.5910   24.5640   11.2320 C.3     1  LIG1        0.2861
     40 H          25.2930   25.6120   11.3400 H       1  LIG1       -0.0169
     41 H          24.8170   24.0460   10.6540 H       1  LIG1       -0.0005
     42 O          26.8240   24.5000   10.5210 O.3     1  LIG1       -0.6636
     43 H          26.6420   24.9330    9.6600 H       1  LIG1        0.4111
@<TRIPOS>BOND
     1     1     2    2
     2     2     3    1
     3     3     4    1
     4     3     5    1
     5     3     6    1
     6     6     7    1
     7     6     8    1
     8     6     9    1
     9     9    10    1
    10     9    11    1
    11     9     1    1
    12     2    12    1
    13    12    13   ar
    14    13    14    1
    15    13    15   ar
    16    15    16    1
    17    15    17   ar
    18    17    18   ar
    19    18    19    1
    20    18    20   ar
    21    20    21    1
    22    20    12   ar
    23    17    22    1
    24    22    23    2
    25    22    24    2
    26    22    25    1
    27    25    26    1
    28    25    27    1
    29    25    28    1
    30     1    29    1
    31    29    30   ar
    32    30    31    1
    33    30    32   ar
    34    32    33    1
    35    32    34   ar
    36    34    35   ar
    37    35    36    1
    38    35    37   ar
    39    37    38    1
    40    37    29   ar
    41    34    39    1
    42    39    40    1
    43    39    41    1
    44    39    42    1
    45    42    43    1
