@<TRIPOS>MOLECULE
6_7b
 39 41 0 0 0
SMALL
USER_CHARGES
****
From 3DB ct
@<TRIPOS>ATOM
      1 C          26.3840   22.0720   16.4160 C.2     1  LIG1        0.1404
      2 C          25.4970   21.4970   17.2530 C.2     1  LIG1       -0.2247
      3 C          26.1800   20.9440   18.4740 C.3     1  LIG1       -0.0288
      4 H          25.8690   19.9280   18.7300 H       1  LIG1        0.0454
      5 H          25.9980   21.5960   19.3360 H       1  LIG1        0.0729
      6 C          27.6520   20.9610   18.0760 C.3     1  LIG1       -0.1122
      7 H          27.9360   19.9840   17.6630 H       1  LIG1        0.0585
      8 H          28.3110   21.1570   18.9280 H       1  LIG1        0.0457
      9 C          27.7720   22.0310   16.9960 C.3     1  LIG1       -0.1067
     10 H          28.0380   23.0000   17.4330 H       1  LIG1        0.0799
     11 H          28.5300   21.7510   16.2580 H       1  LIG1        0.0605
     12 C          24.0400   21.3860   17.1150 C.ar    1  LIG1        0.2432
     13 C          23.3330   22.2630   16.2780 C.ar    1  LIG1       -0.2158
     14 H          23.8590   23.0340   15.7160 H       1  LIG1        0.1634
     15 C          21.9440   22.1710   16.1540 C.ar    1  LIG1       -0.0342
     16 H          21.4190   22.8600   15.4960 H       1  LIG1        0.1907
     17 C          21.2500   21.2040   16.8840 C.ar    1  LIG1       -0.5058
     18 C          21.9360   20.3210   17.7200 C.ar    1  LIG1       -0.0056
     19 H          21.4050   19.5580   18.2850 H       1  LIG1        0.1758
     20 C          23.3260   20.4200   17.8370 C.ar    1  LIG1       -0.3005
     21 H          23.8450   19.7190   18.4900 H       1  LIG1        0.2164
     22 S          19.4840   21.0730   16.7140 S.O2    1  LIG1        2.1794
     23 O          18.9490   22.4170   16.5180 O.2     1  LIG1       -0.9688
     24 O          18.9850   20.2840   17.8360 O.2     1  LIG1       -0.9699
     25 C          19.2730   20.1460   15.2170 C.3     1  LIG1       -0.7119
     26 H          18.2020   20.0240   15.0430 H       1  LIG1        0.2343
     27 H          19.7430   19.1680   15.3350 H       1  LIG1        0.1861
     28 H          19.7240   20.6980   14.3910 H       1  LIG1        0.1845
     29 C          26.1540   22.7020   15.1100 C.ar    1  LIG1       -0.0633
     30 C          26.4180   24.0660   14.9250 C.ar    1  LIG1       -0.3056
     31 H          26.7730   24.6880   15.7420 H       1  LIG1        0.2332
     32 C          26.2110   24.6540   13.6800 C.ar    1  LIG1        0.3421
     33 C          25.7520   23.8990   12.6090 C.ar    1  LIG1        0.3771
     34 C          25.4970   22.5440   12.7660 C.ar    1  LIG1       -0.3492
     35 H          25.1440   21.9550   11.9240 H       1  LIG1        0.2469
     36 C          25.7020   21.9470   14.0140 C.ar    1  LIG1       -0.1088
     37 H          25.5120   20.8790   14.1180 H       1  LIG1        0.1633
     38 F          25.5570   24.4770   11.4140 F       1  LIG1       -0.3164
     39 F          26.4600   25.9620   13.5200 F       1  LIG1       -0.3115
@<TRIPOS>BOND
     1     1     2    2
     2     2     3    1
     3     3     4    1
     4     3     5    1
     5     3     6    1
     6     6     7    1
     7     6     8    1
     8     6     9    1
     9     9    10    1
    10     9    11    1
    11     9     1    1
    12     2    12    1
    13    12    13   ar
    14    13    14    1
    15    13    15   ar
    16    15    16    1
    17    15    17   ar
    18    17    18   ar
    19    18    19    1
    20    18    20   ar
    21    20    21    1
    22    20    12   ar
    23    17    22    1
    24    22    23    2
    25    22    24    2
    26    22    25    1
    27    25    26    1
    28    25    27    1
    29    25    28    1
    30     1    29    1
    31    29    30   ar
    32    30    31    1
    33    30    32   ar
    34    32    33   ar
    35    33    34   ar
    36    34    35    1
    37    34    36   ar
    38    36    37    1
    39    36    29   ar
    40    33    38    1
    41    32    39    1
