@<TRIPOS>MOLECULE
6_7l
 42 45 0 0 0
SMALL
USER_CHARGES
****
From 3DB ct
@<TRIPOS>ATOM
      1 C          26.3840   22.0750   16.4170 C.2     1  LIG1        0.1613
      2 C          25.4980   21.4980   17.2520 C.2     1  LIG1       -0.2222
      3 C          26.1820   20.9410   18.4710 C.3     1  LIG1       -0.0535
      4 H          25.8710   19.9240   18.7230 H       1  LIG1        0.0472
      5 H          26.0000   21.5900   19.3350 H       1  LIG1        0.0773
      6 C          27.6540   20.9600   18.0720 C.3     1  LIG1       -0.1078
      7 H          27.9380   19.9830   17.6570 H       1  LIG1        0.0598
      8 H          28.3130   21.1540   18.9240 H       1  LIG1        0.0460
      9 C          27.7730   22.0310   16.9940 C.3     1  LIG1       -0.1501
     10 H          28.0410   22.9990   17.4330 H       1  LIG1        0.0939
     11 H          28.5300   21.7520   16.2540 H       1  LIG1        0.0730
     12 C          24.0410   21.3890   17.1150 C.ar    1  LIG1        0.2626
     13 C          23.3340   22.2650   16.2780 C.ar    1  LIG1       -0.2490
     14 H          23.8600   23.0350   15.7160 H       1  LIG1        0.1740
     15 C          21.9440   22.1730   16.1540 C.ar    1  LIG1       -0.0150
     16 H          21.4200   22.8610   15.4940 H       1  LIG1        0.1866
     17 C          21.2500   21.2050   16.8820 C.ar    1  LIG1       -0.5025
     18 C          21.9360   20.3230   17.7190 C.ar    1  LIG1       -0.0193
     19 H          21.4050   19.5600   18.2850 H       1  LIG1        0.1758
     20 C          23.3260   20.4220   17.8380 C.ar    1  LIG1       -0.3042
     21 H          23.8450   19.7220   18.4910 H       1  LIG1        0.2163
     22 S          19.4850   21.0720   16.7110 S.O2    1  LIG1        2.1782
     23 O          18.9490   22.4160   16.5170 O.2     1  LIG1       -0.9715
     24 O          18.9850   20.2810   17.8310 O.2     1  LIG1       -0.9719
     25 C          19.2760   20.1480   15.2130 C.3     1  LIG1       -0.7248
     26 H          18.2050   20.0260   15.0370 H       1  LIG1        0.2355
     27 H          19.7470   19.1710   15.3290 H       1  LIG1        0.1913
     28 H          19.7280   20.7020   14.3870 H       1  LIG1        0.1870
     29 C          26.1540   22.7110   15.1130 C.ar    1  LIG1       -0.0961
     30 C          26.4190   24.0780   14.9370 C.ar    1  LIG1       -0.3058
     31 H          26.7720   24.7000   15.7540 H       1  LIG1        0.2309
     32 C          26.2050   24.6330   13.6910 C.ar    1  LIG1        0.2430
     33 C          25.7530   23.8850   12.6310 C.ar    1  LIG1        0.2556
     34 C          25.4930   22.5390   12.7560 C.ar    1  LIG1       -0.3575
     35 H          25.1420   21.9500   11.9150 H       1  LIG1        0.2443
     36 C          25.7010   21.9510   14.0090 C.ar    1  LIG1       -0.0820
     37 H          25.5140   20.8830   14.1190 H       1  LIG1        0.1471
     38 O          25.6100   24.6210   11.4970 O.3     1  LIG1       -0.4062
     39 C          26.0210   25.9280   11.9630 C.3     1  LIG1        0.2670
     40 H          26.8750   26.2620   11.3630 H       1  LIG1        0.0987
     41 H          25.1900   26.6290   11.8220 H       1  LIG1        0.0963
     42 O          26.4030   25.9370   13.3590 O.3     1  LIG1       -0.4090
@<TRIPOS>BOND
     1     1     2    2
     2     2     3    1
     3     3     4    1
     4     3     5    1
     5     3     6    1
     6     6     7    1
     7     6     8    1
     8     6     9    1
     9     9    10    1
    10     9    11    1
    11     9     1    1
    12     2    12    1
    13    12    13   ar
    14    13    14    1
    15    13    15   ar
    16    15    16    1
    17    15    17   ar
    18    17    18   ar
    19    18    19    1
    20    18    20   ar
    21    20    21    1
    22    20    12   ar
    23    17    22    1
    24    22    23    2
    25    22    24    2
    26    22    25    1
    27    25    26    1
    28    25    27    1
    29    25    28    1
    30     1    29    1
    31    29    30   ar
    32    30    31    1
    33    30    32   ar
    34    32    33   ar
    35    33    34   ar
    36    34    35    1
    37    34    36   ar
    38    36    37    1
    39    36    29   ar
    40    33    38    1
    41    38    39    1
    42    39    40    1
    43    39    41    1
    44    39    42    1
    45    42    32    1
