@<TRIPOS>MOLECULE
6_8b
 38 40 0 0 0
SMALL
USER_CHARGES
****
From 3DB ct
@<TRIPOS>ATOM
      1 C          26.3840   22.0700   16.4160 C.2     1  LIG1        0.1780
      2 C          25.4970   21.4970   17.2540 C.2     1  LIG1       -0.2627
      3 C          26.1810   20.9450   18.4750 C.3     1  LIG1       -0.0793
      4 H          25.8690   19.9280   18.7320 H       1  LIG1        0.0561
      5 H          25.9980   21.5980   19.3370 H       1  LIG1        0.0823
      6 C          27.6530   20.9620   18.0770 C.3     1  LIG1       -0.0604
      7 H          27.9370   19.9830   17.6670 H       1  LIG1        0.0511
      8 H          28.3110   21.1610   18.9280 H       1  LIG1        0.0373
      9 C          27.7720   22.0280   16.9930 C.3     1  LIG1       -0.1603
     10 H          28.0410   22.9970   17.4270 H       1  LIG1        0.0931
     11 H          28.5290   21.7440   16.2550 H       1  LIG1        0.0704
     12 C          24.0400   21.3880   17.1180 C.ar    1  LIG1        0.3536
     13 C          23.3330   22.2650   16.2810 C.ar    1  LIG1       -0.3045
     14 H          23.8580   23.0360   15.7190 H       1  LIG1        0.1752
     15 C          21.9430   22.1720   16.1580 C.ar    1  LIG1        0.0765
     16 H          21.4140   22.8600   15.5020 H       1  LIG1        0.1752
     17 C          21.2490   21.2030   16.8860 C.ar    1  LIG1       -0.6057
     18 C          21.9360   20.3230   17.7240 C.ar    1  LIG1        0.0492
     19 H          21.4050   19.5610   18.2910 H       1  LIG1        0.1789
     20 C          23.3260   20.4220   17.8410 C.ar    1  LIG1       -0.3429
     21 H          23.8460   19.7220   18.4950 H       1  LIG1        0.2201
     22 S          19.4910   21.0730   16.7040 S.O2    1  LIG1        2.4431
     23 O          18.9360   22.3820   16.4090 O.2     1  LIG1       -0.9939
     24 O          18.9610   20.2770   17.7970 O.2     1  LIG1       -0.9954
     25 N          19.3490   20.1590   15.3070 N.3     1  LIG1       -1.3116
     26 H          18.8730   20.6850   14.5700 H       1  LIG1        0.4845
     27 H          18.8780   19.2700   15.4950 H       1  LIG1        0.4872
     28 C          26.1520   22.7010   15.1100 C.ar    1  LIG1       -0.0810
     29 C          26.4170   24.0660   14.9250 C.ar    1  LIG1       -0.2947
     30 H          26.7720   24.6870   15.7420 H       1  LIG1        0.2296
     31 C          26.2080   24.6540   13.6810 C.ar    1  LIG1        0.3290
     32 C          25.7470   23.9010   12.6100 C.ar    1  LIG1        0.3873
     33 C          25.4920   22.5460   12.7660 C.ar    1  LIG1       -0.3472
     34 H          25.1380   21.9570   11.9250 H       1  LIG1        0.2459
     35 C          25.6980   21.9470   14.0130 C.ar    1  LIG1       -0.0990
     36 H          25.5080   20.8800   14.1170 H       1  LIG1        0.1645
     37 F          25.5520   24.4790   11.4160 F       1  LIG1       -0.3187
     38 F          26.4570   25.9630   13.5210 F       1  LIG1       -0.3105
@<TRIPOS>BOND
     1     1     2    2
     2     2     3    1
     3     3     4    1
     4     3     5    1
     5     3     6    1
     6     6     7    1
     7     6     8    1
     8     6     9    1
     9     9    10    1
    10     9    11    1
    11     9     1    1
    12     2    12    1
    13    12    13   ar
    14    13    14    1
    15    13    15   ar
    16    15    16    1
    17    15    17   ar
    18    17    18   ar
    19    18    19    1
    20    18    20   ar
    21    20    21    1
    22    20    12   ar
    23    17    22    1
    24    22    23    2
    25    22    24    2
    26    22    25    1
    27    25    26    1
    28    25    27    1
    29     1    28    1
    30    28    29   ar
    31    29    30    1
    32    29    31   ar
    33    31    32   ar
    34    32    33   ar
    35    33    34    1
    36    33    35   ar
    37    35    36    1
    38    35    28   ar
    39    32    37    1
    40    31    38    1
