@<TRIPOS>MOLECULE
6_8o
 41 43 0 0 0
SMALL
USER_CHARGES
****
From 3DB ct
@<TRIPOS>ATOM
      1 C          26.3810   22.0710   16.4150 C.2     1  LIG1       -0.0653
      2 C          25.4930   21.4960   17.2520 C.2     1  LIG1       -0.1034
      3 C          26.1770   20.9450   18.4740 C.3     1  LIG1       -0.0788
      4 H          25.8660   19.9290   18.7320 H       1  LIG1        0.0482
      5 H          25.9960   21.5990   19.3350 H       1  LIG1        0.0772
      6 C          27.6490   20.9590   18.0740 C.3     1  LIG1       -0.0422
      7 H          27.9300   19.9820   17.6600 H       1  LIG1        0.0539
      8 H          28.3080   21.1540   18.9260 H       1  LIG1        0.0290
      9 C          27.7690   22.0300   16.9950 C.3     1  LIG1       -0.1574
     10 H          28.0350   22.9980   17.4330 H       1  LIG1        0.1086
     11 H          28.5280   21.7500   16.2580 H       1  LIG1        0.0652
     12 C          24.0360   21.3840   17.1160 C.ar    1  LIG1        0.2182
     13 C          23.3260   22.2610   16.2810 C.ar    1  LIG1       -0.2346
     14 H          23.8500   23.0310   15.7180 H       1  LIG1        0.1526
     15 C          21.9360   22.1680   16.1620 C.ar    1  LIG1        0.0385
     16 H          21.4050   22.8560   15.5080 H       1  LIG1        0.1835
     17 C          21.2430   21.1990   16.8920 C.ar    1  LIG1       -0.5807
     18 C          21.9330   20.3190   17.7280 C.ar    1  LIG1        0.0374
     19 H          21.4040   19.5560   18.2960 H       1  LIG1        0.1774
     20 C          23.3240   20.4180   17.8410 C.ar    1  LIG1       -0.2905
     21 H          23.8440   19.7180   18.4930 H       1  LIG1        0.2093
     22 S          19.4850   21.0700   16.7160 S.O2    1  LIG1        2.4349
     23 O          18.9300   22.3800   16.4230 O.2     1  LIG1       -0.9922
     24 O          18.9580   20.2750   17.8110 O.2     1  LIG1       -0.9930
     25 N          19.3370   20.1570   15.3190 N.3     1  LIG1       -1.3112
     26 H          18.8590   20.6840   14.5840 H       1  LIG1        0.4860
     27 H          18.8660   19.2680   15.5080 H       1  LIG1        0.4877
     28 C          26.1550   22.7000   15.1070 C.ar    1  LIG1        0.2470
     29 C          26.4170   24.0630   14.9190 C.ar    1  LIG1       -0.2534
     30 H          26.7620   24.6810   15.7470 H       1  LIG1        0.1633
     31 C          26.2250   24.6660   13.6710 C.ar    1  LIG1        0.0308
     32 H          26.4260   25.7310   13.5600 H       1  LIG1        0.1574
     33 C          25.7800   23.9130   12.5750 C.ar    1  LIG1       -0.5071
     34 C          25.5200   22.5490   12.7600 C.ar    1  LIG1        0.0043
     35 H          25.1680   21.9390   11.9290 H       1  LIG1        0.1635
     36 C          25.7130   21.9490   14.0100 C.ar    1  LIG1       -0.2490
     37 H          25.5200   20.8820   14.1120 H       1  LIG1        0.1671
     38 C          25.5520   24.5660   11.2350 C.3     1  LIG1        1.5167
     39 F          25.7370   23.7200   10.1750 F       1  LIG1       -0.4656
     40 F          26.3800   25.6280   10.9940 F       1  LIG1       -0.4661
     41 F          24.2820   25.0540   11.0930 F       1  LIG1       -0.4670
@<TRIPOS>BOND
     1     1     2    2
     2     2     3    1
     3     3     4    1
     4     3     5    1
     5     3     6    1
     6     6     7    1
     7     6     8    1
     8     6     9    1
     9     9    10    1
    10     9    11    1
    11     9     1    1
    12     2    12    1
    13    12    13   ar
    14    13    14    1
    15    13    15   ar
    16    15    16    1
    17    15    17   ar
    18    17    18   ar
    19    18    19    1
    20    18    20   ar
    21    20    21    1
    22    20    12   ar
    23    17    22    1
    24    22    23    2
    25    22    24    2
    26    22    25    1
    27    25    26    1
    28    25    27    1
    29     1    28    1
    30    28    29   ar
    31    29    30    1
    32    29    31   ar
    33    31    32    1
    34    31    33   ar
    35    33    34   ar
    36    34    35    1
    37    34    36   ar
    38    36    37    1
    39    36    28   ar
    40    33    38    1
    41    38    39    1
    42    38    40    1
    43    38    41    1
