@<TRIPOS>MOLECULE
7_17b
 37 39 0 0 0
SMALL
USER_CHARGES
****
From 3DB ct
@<TRIPOS>ATOM
      1 C          26.5040   22.0490   16.4690 C.ar    1  LIG1        0.0821
      2 C          25.6120   21.4530   17.3960 C.ar    1  LIG1       -0.0560
      3 C          24.1610   21.3930   17.1610 C.ar    1  LIG1        0.1816
      4 C          23.5410   22.2920   16.2770 C.ar    1  LIG1       -0.2276
      5 H          24.1330   23.0460   15.7590 H       1  LIG1        0.1592
      6 C          22.1640   22.2330   16.0470 C.ar    1  LIG1        0.0480
      7 H          21.7020   22.9360   15.3570 H       1  LIG1        0.1791
      8 C          21.3940   21.2680   16.7030 C.ar    1  LIG1       -0.5890
      9 C          21.9900   20.3720   17.5930 C.ar    1  LIG1       -0.0370
     10 H          21.3990   19.6210   18.1130 H       1  LIG1        0.1983
     11 C          23.3680   20.4380   17.8180 C.ar    1  LIG1       -0.1813
     12 H          23.8260   19.7320   18.5110 H       1  LIG1        0.1603
     13 S          19.6450   21.2210   16.4250 S.O2    1  LIG1        2.4483
     14 O          19.2270   22.4880   15.8530 O.2     1  LIG1       -0.9953
     15 O          18.9800   20.6860   17.6000 O.2     1  LIG1       -0.9963
     16 N          19.5090   20.0600   15.2250 N.3     1  LIG1       -1.2998
     17 H          19.1130   20.4580   14.3690 H       1  LIG1        0.4811
     18 H          18.9650   19.2570   15.5500 H       1  LIG1        0.4824
     19 C          26.1310   20.9030   18.5840 C.ar    1  LIG1       -0.1659
     20 H          25.4600   20.4440   19.3100 H       1  LIG1        0.1573
     21 C          27.4980   20.9390   18.8590 C.ar    1  LIG1       -0.1349
     22 H          27.8780   20.5110   19.7850 H       1  LIG1        0.1585
     23 C          28.3730   21.5200   17.9480 C.ar    1  LIG1       -0.1441
     24 H          29.4410   21.5480   18.1580 H       1  LIG1        0.1611
     25 C          27.8800   22.0710   16.7650 C.ar    1  LIG1       -0.1595
     26 H          28.5810   22.5230   16.0630 H       1  LIG1        0.1466
     27 C          26.0400   22.6490   15.2080 C.ar    1  LIG1       -0.2897
     28 C          26.2630   24.0110   14.9430 C.ar    1  LIG1        0.4520
     29 H          26.7840   24.6260   15.6730 H       1  LIG1        0.0525
     30 C          25.8120   24.5810   13.7510 C.ar    1  LIG1       -0.9465
     31 C          25.1400   23.7970   12.8160 C.ar    1  LIG1        0.9669
     32 C          24.9150   22.4460   13.0570 C.ar    1  LIG1       -0.5570
     33 H          24.3900   21.8440   12.3210 H       1  LIG1        0.2535
     34 C          25.3650   21.8740   14.2490 C.ar    1  LIG1        0.1063
     35 H          25.1830   20.8150   14.4310 H       1  LIG1        0.1323
     36 F          24.7010   24.3310   11.6660 F       1  LIG1       -0.4281
     37 CL         26.0920   26.2530   13.4490 Cl      1  LIG1        0.2008
@<TRIPOS>BOND
     1     1     2   ar
     2     2     3    1
     3     3     4   ar
     4     4     5    1
     5     4     6   ar
     6     6     7    1
     7     6     8   ar
     8     8     9   ar
     9     9    10    1
    10     9    11   ar
    11    11    12    1
    12    11     3   ar
    13     8    13    1
    14    13    14    2
    15    13    15    2
    16    13    16    1
    17    16    17    1
    18    16    18    1
    19     2    19   ar
    20    19    20    1
    21    19    21   ar
    22    21    22    1
    23    21    23   ar
    24    23    24    1
    25    23    25   ar
    26    25    26    1
    27    25     1   ar
    28     1    27    1
    29    27    28   ar
    30    28    29    1
    31    28    30   ar
    32    30    31   ar
    33    31    32   ar
    34    32    33    1
    35    32    34   ar
    36    34    35    1
    37    34    27   ar
    38    31    36    1
    39    30    37    1
