@<TRIPOS>MOLECULE
7_17a
 37 39 0 0 0
SMALL
USER_CHARGES
****
From 3DB ct
@<TRIPOS>ATOM
      1 C          26.4990   22.0610   16.4720 C.ar    1  LIG1        0.1451
      2 C          25.6040   21.4470   17.3860 C.ar    1  LIG1       -0.1106
      3 C          24.1480   21.3840   17.1560 C.ar    1  LIG1        0.2209
      4 C          23.5150   22.2850   16.2820 C.ar    1  LIG1       -0.2550
      5 H          24.0990   23.0440   15.7620 H       1  LIG1        0.1712
      6 C          22.1360   22.2270   16.0660 C.ar    1  LIG1        0.0535
      7 H          21.6670   22.9330   15.3830 H       1  LIG1        0.1777
      8 C          21.3730   21.2590   16.7250 C.ar    1  LIG1       -0.5862
      9 C          21.9770   20.3620   17.6070 C.ar    1  LIG1       -0.0413
     10 H          21.3920   19.6100   18.1300 H       1  LIG1        0.1978
     11 C          23.3580   20.4280   17.8180 C.ar    1  LIG1       -0.1846
     12 H          23.8200   19.7180   18.5050 H       1  LIG1        0.1601
     13 S          19.6220   21.2110   16.4600 S.O2    1  LIG1        2.4456
     14 O          19.2010   22.4730   15.8780 O.2     1  LIG1       -0.9969
     15 O          18.9660   20.6890   17.6460 O.2     1  LIG1       -0.9964
     16 N          19.4750   20.0380   15.2740 N.3     1  LIG1       -1.3027
     17 H          19.0800   20.4280   14.4150 H       1  LIG1        0.4821
     18 H          18.9270   19.2420   15.6100 H       1  LIG1        0.4829
     19 C          26.1220   20.8830   18.5700 C.ar    1  LIG1       -0.1394
     20 H          25.4510   20.4100   19.2870 H       1  LIG1        0.1492
     21 C          27.4860   20.9250   18.8580 C.ar    1  LIG1       -0.1530
     22 H          27.8620   20.4850   19.7800 H       1  LIG1        0.1569
     23 C          28.3620   21.5310   17.9670 C.ar    1  LIG1       -0.1166
     24 H          29.4280   21.5670   18.1860 H       1  LIG1        0.1528
     25 C          27.8730   22.0930   16.7870 C.ar    1  LIG1       -0.2219
     26 H          28.5790   22.5570   16.0980 H       1  LIG1        0.1685
     27 C          26.0550   22.6580   15.1990 C.ar    1  LIG1       -0.1942
     28 C          26.2780   24.0210   14.9290 C.ar    1  LIG1        0.0175
     29 H          26.7760   24.6510   15.6650 H       1  LIG1        0.1442
     30 C          25.8590   24.5900   13.7240 C.ar    1  LIG1       -0.4486
     31 H          26.0310   25.6440   13.5230 H       1  LIG1        0.2368
     32 C          25.2170   23.7990   12.7800 C.ar    1  LIG1        0.5992
     33 C          24.9890   22.4500   13.0160 C.ar    1  LIG1       -0.4293
     34 H          24.4870   21.8440   12.2670 H       1  LIG1        0.2299
     35 C          25.4090   21.8810   14.2210 C.ar    1  LIG1        0.0226
     36 H          25.2290   20.8200   14.3950 H       1  LIG1        0.1317
     37 F          24.8150   24.3450   11.6240 F       1  LIG1       -0.3698
@<TRIPOS>BOND
     1     1     2   ar
     2     2     3    1
     3     3     4   ar
     4     4     5    1
     5     4     6   ar
     6     6     7    1
     7     6     8   ar
     8     8     9   ar
     9     9    10    1
    10     9    11   ar
    11    11    12    1
    12    11     3   ar
    13     8    13    1
    14    13    14    2
    15    13    15    2
    16    13    16    1
    17    16    17    1
    18    16    18    1
    19     2    19   ar
    20    19    20    1
    21    19    21   ar
    22    21    22    1
    23    21    23   ar
    24    23    24    1
    25    23    25   ar
    26    25    26    1
    27    25     1   ar
    28     1    27    1
    29    27    28   ar
    30    28    29    1
    31    28    30   ar
    32    30    31    1
    33    30    32   ar
    34    32    33   ar
    35    33    34    1
    36    33    35   ar
    37    35    36    1
    38    35    27   ar
    39    32    37    1
