@<TRIPOS>MOLECULE
7_20c
 41 43 0 0 0
SMALL
USER_CHARGES
****
From 3DB ct
@<TRIPOS>ATOM
      1 C          26.5030   22.0640   16.4730 C.ar    1  LIG1        0.1034
      2 C          25.6040   21.4420   17.3840 C.ar    1  LIG1       -0.1938
      3 C          24.1490   21.3780   17.1500 C.ar    1  LIG1        0.3573
      4 C          23.5170   22.2850   16.2820 C.ar    1  LIG1       -0.2957
      5 H          24.1010   23.0440   15.7630 H       1  LIG1        0.2017
      6 C          22.1360   22.2330   16.0700 C.ar    1  LIG1       -0.0187
      7 H          21.6730   22.9450   15.3900 H       1  LIG1        0.1949
      8 C          21.3710   21.2770   16.7400 C.ar    1  LIG1       -0.5146
      9 C          21.9770   20.3610   17.6020 C.ar    1  LIG1       -0.0314
     10 H          21.3920   19.6070   18.1220 H       1  LIG1        0.1923
     11 C          23.3600   20.4180   17.8070 C.ar    1  LIG1       -0.3038
     12 H          23.8210   19.7010   18.4840 H       1  LIG1        0.2029
     13 S          19.6160   21.2110   16.4640 S.O2    1  LIG1        2.2025
     14 O          19.1960   22.4940   15.9080 O.2     1  LIG1       -0.9727
     15 O          18.9880   20.7510   17.6990 O.2     1  LIG1       -0.9734
     16 C          19.4320   19.9610   15.2200 C.3     1  LIG1       -0.7289
     17 H          18.3690   19.8630   14.9920 H       1  LIG1        0.2388
     18 H          19.8170   19.0150   15.6050 H       1  LIG1        0.1921
     19 H          19.9780   20.2670   14.3250 H       1  LIG1        0.1912
     20 C          26.1160   20.8760   18.5700 C.ar    1  LIG1       -0.2765
     21 H          25.4530   20.3970   19.2870 H       1  LIG1        0.2385
     22 C          27.4760   20.9300   18.8510 C.ar    1  LIG1        0.3326
     23 C          28.3490   21.5420   17.9680 C.ar    1  LIG1        0.3812
     24 C          27.8760   22.1060   16.7890 C.ar    1  LIG1       -0.3832
     25 H          28.5870   22.5730   16.1110 H       1  LIG1        0.2642
     26 F          29.6600   21.5930   18.2460 F       1  LIG1       -0.3111
     27 F          27.9390   20.3880   19.9870 F       1  LIG1       -0.3056
     28 C          26.0570   22.6560   15.1990 C.ar    1  LIG1       -0.0233
     29 C          26.2780   24.0190   14.9260 C.ar    1  LIG1       -0.2631
     30 H          26.7750   24.6410   15.6710 H       1  LIG1        0.2292
     31 C          25.8590   24.5950   13.7170 C.ar    1  LIG1       -0.0079
     32 C          25.1980   23.7910   12.7870 C.ar    1  LIG1        0.4439
     33 C          24.9760   22.4410   13.0290 C.ar    1  LIG1       -0.3809
     34 H          24.4650   21.8340   12.2870 H       1  LIG1        0.2343
     35 C          25.4080   21.8740   14.2290 C.ar    1  LIG1       -0.0909
     36 H          25.2300   20.8140   14.4070 H       1  LIG1        0.1685
     37 F          24.7640   24.3220   11.6340 F       1  LIG1       -0.3312
     38 C          26.0590   26.0570   13.4550 C.3     1  LIG1       -0.2214
     39 H          26.2850   26.2360   12.3990 H       1  LIG1        0.0940
     40 H          26.9010   26.4500   14.0360 H       1  LIG1        0.0765
     41 H          25.1570   26.6130   13.7260 H       1  LIG1        0.0881
@<TRIPOS>BOND
     1     1     2   ar
     2     2     3    1
     3     3     4   ar
     4     4     5    1
     5     4     6   ar
     6     6     7    1
     7     6     8   ar
     8     8     9   ar
     9     9    10    1
    10     9    11   ar
    11    11    12    1
    12    11     3   ar
    13     8    13    1
    14    13    14    2
    15    13    15    2
    16    13    16    1
    17    16    17    1
    18    16    18    1
    19    16    19    1
    20     2    20   ar
    21    20    21    1
    22    20    22   ar
    23    22    23   ar
    24    23    24   ar
    25    24    25    1
    26    24     1   ar
    27    23    26    1
    28    22    27    1
    29     1    28    1
    30    28    29   ar
    31    29    30    1
    32    29    31   ar
    33    31    32   ar
    34    32    33   ar
    35    33    34    1
    36    33    35   ar
    37    35    36    1
    38    35    28   ar
    39    32    37    1
    40    31    38    1
    41    38    39    1
    42    38    40    1
    43    38    41    1
