@<TRIPOS>MOLECULE
7_20o
 46 48 0 0 0
SMALL
USER_CHARGES
****
From 3DB ct
@<TRIPOS>ATOM
      1 C          26.5130   22.0320   16.4610 C.ar    1  LIG1        0.0315
      2 C          25.6090   21.4700   17.4060 C.ar    1  LIG1       -0.1283
      3 C          24.1560   21.4070   17.1670 C.ar    1  LIG1        0.2957
      4 C          23.5330   22.3010   16.2790 C.ar    1  LIG1       -0.2412
      5 H          24.1230   23.0510   15.7540 H       1  LIG1        0.1834
      6 C          22.1570   22.2360   16.0450 C.ar    1  LIG1       -0.0267
      7 H          21.7000   22.9360   15.3490 H       1  LIG1        0.1918
      8 C          21.3910   21.2700   16.7010 C.ar    1  LIG1       -0.5151
      9 C          21.9870   20.3830   17.6000 C.ar    1  LIG1       -0.0277
     10 H          21.3950   19.6350   18.1240 H       1  LIG1        0.1881
     11 C          23.3640   20.4520   17.8270 C.ar    1  LIG1       -0.2995
     12 H          23.8190   19.7520   18.5270 H       1  LIG1        0.2020
     13 S          19.6380   21.1820   16.4240 S.O2    1  LIG1        2.2119
     14 O          19.1990   22.4650   15.8810 O.2     1  LIG1       -0.9737
     15 O          19.0170   20.6990   17.6530 O.2     1  LIG1       -0.9735
     16 C          19.4750   19.9450   15.1650 C.3     1  LIG1       -0.7644
     17 H          18.4130   19.8390   14.9290 H       1  LIG1        0.2437
     18 H          19.8660   18.9970   15.5410 H       1  LIG1        0.2026
     19 H          20.0230   20.2650   14.2770 H       1  LIG1        0.2069
     20 C          26.1160   20.9330   18.6060 C.ar    1  LIG1       -0.3018
     21 H          25.4470   20.4960   19.3440 H       1  LIG1        0.2456
     22 C          27.4820   20.9390   18.8600 C.ar    1  LIG1        0.3420
     23 C          28.3630   21.4750   17.9340 C.ar    1  LIG1        0.3597
     24 C          27.8930   22.0170   16.7440 C.ar    1  LIG1       -0.3224
     25 H          28.6080   22.4370   16.0410 H       1  LIG1        0.2423
     26 F          29.6800   21.4750   18.1860 F       1  LIG1       -0.3073
     27 F          27.9440   20.4170   20.0050 F       1  LIG1       -0.3064
     28 C          26.0520   22.6440   15.2010 C.ar    1  LIG1       -0.0685
     29 C          26.2910   23.9960   14.9290 C.ar    1  LIG1        0.1634
     30 H          26.8560   24.5930   15.6430 H       1  LIG1        0.1081
     31 C          25.8210   24.5960   13.7490 C.ar    1  LIG1       -0.7915
     32 C          25.0860   23.8650   12.7870 C.ar    1  LIG1        0.9810
     33 C          24.8950   22.4980   13.0630 C.ar    1  LIG1       -0.4763
     34 H          24.3380   21.8660   12.3730 H       1  LIG1        0.2172
     35 C          25.3630   21.8980   14.2420 C.ar    1  LIG1       -0.0556
     36 H          25.1610   20.8400   14.4080 H       1  LIG1        0.1682
     37 N          24.5560   24.4170   11.6230 N.pl3   1  LIG1       -0.7981
     38 C          25.4060   24.6960   10.4670 C.3     1  LIG1       -0.0035
     39 H          24.9260   25.4300    9.8120 H       1  LIG1        0.0548
     40 H          25.5800   23.7860    9.8840 H       1  LIG1        0.0983
     41 H          26.3690   25.1190   10.7730 H       1  LIG1        0.0572
     42 C          23.1130   24.3740   11.3870 C.3     1  LIG1        0.1164
     43 H          22.9040   24.1080   10.3440 H       1  LIG1        0.0882
     44 H          22.6680   25.3560   11.5710 H       1  LIG1        0.0100
     45 H          22.6120   23.6230   12.0080 H       1  LIG1        0.0117
     46 CL         26.2750   26.2560   13.5160 Cl      1  LIG1        0.1597
@<TRIPOS>BOND
     1     1     2   ar
     2     2     3    1
     3     3     4   ar
     4     4     5    1
     5     4     6   ar
     6     6     7    1
     7     6     8   ar
     8     8     9   ar
     9     9    10    1
    10     9    11   ar
    11    11    12    1
    12    11     3   ar
    13     8    13    1
    14    13    14    2
    15    13    15    2
    16    13    16    1
    17    16    17    1
    18    16    18    1
    19    16    19    1
    20     2    20   ar
    21    20    21    1
    22    20    22   ar
    23    22    23   ar
    24    23    24   ar
    25    24    25    1
    26    24     1   ar
    27    23    26    1
    28    22    27    1
    29     1    28    1
    30    28    29   ar
    31    29    30    1
    32    29    31   ar
    33    31    32   ar
    34    32    33   ar
    35    33    34    1
    36    33    35   ar
    37    35    36    1
    38    35    28   ar
    39    32    37    1
    40    37    38    1
    41    38    39    1
    42    38    40    1
    43    38    41    1
    44    37    42    1
    45    42    43    1
    46    42    44    1
    47    42    45    1
    48    31    46    1
