@<TRIPOS>MOLECULE
7_20k
 41 43 0 0 0
SMALL
USER_CHARGES
****
From 3DB ct
@<TRIPOS>ATOM
      1 C          26.5070   22.0400   16.4630 C.ar    1  LIG1        0.0309
      2 C          25.6090   21.4590   17.4030 C.ar    1  LIG1       -0.1395
      3 C          24.1550   21.3990   17.1730 C.ar    1  LIG1        0.2984
      4 C          23.5340   22.2950   16.2850 C.ar    1  LIG1       -0.2515
      5 H          24.1270   23.0430   15.7590 H       1  LIG1        0.1889
      6 C          22.1570   22.2350   16.0510 C.ar    1  LIG1       -0.0299
      7 H          21.7030   22.9360   15.3540 H       1  LIG1        0.1942
      8 C          21.3890   21.2720   16.7070 C.ar    1  LIG1       -0.5074
      9 C          21.9810   20.3860   17.6090 C.ar    1  LIG1       -0.0470
     10 H          21.3880   19.6390   18.1330 H       1  LIG1        0.1916
     11 C          23.3580   20.4520   17.8380 C.ar    1  LIG1       -0.2748
     12 H          23.8110   19.7520   18.5390 H       1  LIG1        0.1968
     13 S          19.6370   21.1910   16.4170 S.O2    1  LIG1        2.2042
     14 O          19.2110   22.4760   15.8700 O.2     1  LIG1       -0.9755
     15 O          19.0010   20.7140   17.6410 O.2     1  LIG1       -0.9758
     16 C          19.4770   19.9500   15.1610 C.3     1  LIG1       -0.7161
     17 H          18.4160   19.8390   14.9260 H       1  LIG1        0.2332
     18 H          19.8730   19.0060   15.5400 H       1  LIG1        0.1893
     19 H          20.0230   20.2710   14.2720 H       1  LIG1        0.1844
     20 C          26.1260   20.9130   18.5950 C.ar    1  LIG1       -0.2873
     21 H          25.4650   20.4600   19.3300 H       1  LIG1        0.2384
     22 C          27.4930   20.9350   18.8470 C.ar    1  LIG1        0.3254
     23 C          28.3670   21.4940   17.9290 C.ar    1  LIG1        0.3801
     24 C          27.8870   22.0430   16.7460 C.ar    1  LIG1       -0.3580
     25 H          28.5950   22.4830   16.0470 H       1  LIG1        0.2512
     26 F          29.6840   21.5120   18.1800 F       1  LIG1       -0.3128
     27 F          27.9620   20.4070   19.9870 F       1  LIG1       -0.3060
     28 C          26.0460   22.6520   15.2040 C.ar    1  LIG1        0.0843
     29 C          26.2670   24.0120   14.9400 C.ar    1  LIG1       -0.2035
     30 H          26.7850   24.6340   15.6690 H       1  LIG1        0.1840
     31 C          25.8230   24.5930   13.7480 C.ar    1  LIG1       -0.2713
     32 H          26.0000   25.6540   13.5780 H       1  LIG1        0.1955
     33 C          25.1600   23.8220   12.7880 C.ar    1  LIG1        0.2164
     34 C          24.9290   22.4670   13.0460 C.ar    1  LIG1       -0.2865
     35 H          24.3990   21.8500   12.3220 H       1  LIG1        0.1937
     36 C          25.3750   21.8870   14.2380 C.ar    1  LIG1       -0.1687
     37 H          25.1820   20.8290   14.4140 H       1  LIG1        0.1617
     38 C          24.6490   24.4520   11.5250 C.3     1  LIG1       -0.2949
     39 H          24.6490   23.7320   10.7010 H       1  LIG1        0.0845
     40 H          25.2850   25.2920   11.2230 H       1  LIG1        0.0871
     41 H          23.6290   24.8170   11.6770 H       1  LIG1        0.0924
@<TRIPOS>BOND
     1     1     2   ar
     2     2     3    1
     3     3     4   ar
     4     4     5    1
     5     4     6   ar
     6     6     7    1
     7     6     8   ar
     8     8     9   ar
     9     9    10    1
    10     9    11   ar
    11    11    12    1
    12    11     3   ar
    13     8    13    1
    14    13    14    2
    15    13    15    2
    16    13    16    1
    17    16    17    1
    18    16    18    1
    19    16    19    1
    20     2    20   ar
    21    20    21    1
    22    20    22   ar
    23    22    23   ar
    24    23    24   ar
    25    24    25    1
    26    24     1   ar
    27    23    26    1
    28    22    27    1
    29     1    28    1
    30    28    29   ar
    31    29    30    1
    32    29    31   ar
    33    31    32    1
    34    31    33   ar
    35    33    34   ar
    36    34    35    1
    37    34    36   ar
    38    36    37    1
    39    36    28   ar
    40    33    38    1
    41    38    39    1
    42    38    40    1
    43    38    41    1
