@<TRIPOS>MOLECULE
7_21j
 40 43 0 0 0
SMALL
USER_CHARGES
****
From 3DB ct
@<TRIPOS>ATOM
      1 C          26.5060   22.0670   16.4750 C.ar    1  LIG1        0.1541
      2 C          25.6130   21.4420   17.3900 C.ar    1  LIG1       -0.2498
      3 C          24.1590   21.3880   17.1600 C.ar    1  LIG1        0.4666
      4 C          23.5380   22.2890   16.2790 C.ar    1  LIG1       -0.3857
      5 H          24.1290   23.0430   15.7580 H       1  LIG1        0.2178
      6 C          22.1600   22.2360   16.0520 C.ar    1  LIG1        0.0927
      7 H          21.6990   22.9400   15.3630 H       1  LIG1        0.1771
      8 C          21.3890   21.2740   16.7100 C.ar    1  LIG1       -0.6106
      9 C          21.9830   20.3780   17.6000 C.ar    1  LIG1        0.0305
     10 H          21.3900   19.6310   18.1230 H       1  LIG1        0.1929
     11 C          23.3630   20.4380   17.8220 C.ar    1  LIG1       -0.3448
     12 H          23.8170   19.7290   18.5130 H       1  LIG1        0.2042
     13 S          19.6410   21.2290   16.4250 S.O2    1  LIG1        2.4464
     14 O          19.2300   22.4970   15.8500 O.2     1  LIG1       -0.9939
     15 O          18.9710   20.6950   17.5980 O.2     1  LIG1       -0.9935
     16 N          19.5050   20.0660   15.2270 N.3     1  LIG1       -1.3029
     17 H          19.1150   20.4630   14.3690 H       1  LIG1        0.4839
     18 H          18.9570   19.2650   15.5510 H       1  LIG1        0.4826
     19 C          26.1330   20.8640   18.5660 C.ar    1  LIG1       -0.2605
     20 H          25.4740   20.3790   19.2820 H       1  LIG1        0.2279
     21 C          27.4950   20.9150   18.8350 C.ar    1  LIG1        0.3252
     22 C          28.3620   21.5340   17.9480 C.ar    1  LIG1        0.3908
     23 C          27.8810   22.1060   16.7770 C.ar    1  LIG1       -0.4017
     24 H          28.5860   22.5760   16.0950 H       1  LIG1        0.2693
     25 F          29.6750   21.5800   18.2160 F       1  LIG1       -0.3127
     26 F          27.9680   20.3630   19.9610 F       1  LIG1       -0.3063
     27 C          26.0450   22.6660   15.2100 C.ar    1  LIG1       -0.0366
     28 C          26.2580   24.0310   14.9470 C.ar    1  LIG1       -0.3331
     29 H          26.7620   24.6710   15.6660 H       1  LIG1        0.2565
     30 C          25.8000   24.5480   13.7520 C.ar    1  LIG1        0.2140
     31 C          25.1540   23.7670   12.8230 C.ar    1  LIG1        0.2737
     32 C          24.9310   22.4250   13.0350 C.ar    1  LIG1       -0.3449
     33 H          24.4220   21.8120   12.2980 H       1  LIG1        0.2436
     34 C          25.3830   21.8740   14.2400 C.ar    1  LIG1       -0.0966
     35 H          25.2160   20.8140   14.4280 H       1  LIG1        0.1620
     36 O          24.7850   24.4690   11.7190 O.3     1  LIG1       -0.4072
     37 C          25.2670   25.7910   12.0580 C.3     1  LIG1        0.2768
     38 H          24.4180   26.4830   12.0650 H       1  LIG1        0.0963
     39 H          25.9830   26.1110   11.2920 H       1  LIG1        0.0994
     40 O          25.9170   25.8420   13.3500 O.3     1  LIG1       -0.4035
@<TRIPOS>BOND
     1     1     2   ar
     2     2     3    1
     3     3     4   ar
     4     4     5    1
     5     4     6   ar
     6     6     7    1
     7     6     8   ar
     8     8     9   ar
     9     9    10    1
    10     9    11   ar
    11    11    12    1
    12    11     3   ar
    13     8    13    1
    14    13    14    2
    15    13    15    2
    16    13    16    1
    17    16    17    1
    18    16    18    1
    19     2    19   ar
    20    19    20    1
    21    19    21   ar
    22    21    22   ar
    23    22    23   ar
    24    23    24    1
    25    23     1   ar
    26    22    25    1
    27    21    26    1
    28     1    27    1
    29    27    28   ar
    30    28    29    1
    31    28    30   ar
    32    30    31   ar
    33    31    32   ar
    34    32    33    1
    35    32    34   ar
    36    34    35    1
    37    34    27   ar
    38    31    36    1
    39    36    37    1
    40    37    38    1
    41    37    39    1
    42    37    40    1
    43    40    30    1
