@<TRIPOS>MOLECULE
7_21l
 40 42 0 0 0
SMALL
USER_CHARGES
****
From 3DB ct
@<TRIPOS>ATOM
      1 C          26.5050   22.0550   16.4720 C.ar    1  LIG1       -0.0457
      2 C          25.6120   21.4460   17.3960 C.ar    1  LIG1       -0.0857
      3 C          24.1610   21.3890   17.1610 C.ar    1  LIG1        0.3142
      4 C          23.5430   22.2900   16.2790 C.ar    1  LIG1       -0.2849
      5 H          24.1360   23.0450   15.7620 H       1  LIG1        0.1881
      6 C          22.1660   22.2350   16.0470 C.ar    1  LIG1        0.0536
      7 H          21.7070   22.9420   15.3590 H       1  LIG1        0.1808
      8 C          21.3940   21.2690   16.6990 C.ar    1  LIG1       -0.5796
      9 C          21.9870   20.3730   17.5900 C.ar    1  LIG1       -0.0204
     10 H          21.3930   19.6240   18.1080 H       1  LIG1        0.2004
     11 C          23.3650   20.4350   17.8170 C.ar    1  LIG1       -0.2755
     12 H          23.8200   19.7270   18.5100 H       1  LIG1        0.1940
     13 S          19.6430   21.2260   16.4300 S.O2    1  LIG1        2.4486
     14 O          19.2200   22.4940   15.8620 O.2     1  LIG1       -0.9937
     15 O          18.9860   20.6920   17.6090 O.2     1  LIG1       -0.9940
     16 N          19.4980   20.0690   15.2260 N.3     1  LIG1       -1.2953
     17 H          19.1010   20.4710   14.3740 H       1  LIG1        0.4791
     18 H          18.9520   19.2660   15.5500 H       1  LIG1        0.4808
     19 C          26.1280   20.8840   18.5800 C.ar    1  LIG1       -0.3254
     20 H          25.4670   20.4130   19.3050 H       1  LIG1        0.2435
     21 C          27.4920   20.9290   18.8440 C.ar    1  LIG1        0.3549
     22 C          28.3620   21.5260   17.9450 C.ar    1  LIG1        0.3446
     23 C          27.8810   22.0870   16.7680 C.ar    1  LIG1       -0.2804
     24 H          28.5860   22.5470   16.0790 H       1  LIG1        0.2273
     25 F          29.6760   21.5650   18.2080 F       1  LIG1       -0.3048
     26 F          27.9640   20.3910   19.9780 F       1  LIG1       -0.3066
     27 C          26.0390   22.6520   15.2110 C.ar    1  LIG1       -0.0162
     28 C          26.2560   24.0090   14.9360 C.ar    1  LIG1        0.2080
     29 H          26.7720   24.6300   15.6660 H       1  LIG1        0.0954
     30 C          25.8080   24.5770   13.7380 C.ar    1  LIG1       -0.7480
     31 C          25.1350   23.8000   12.7840 C.ar    1  LIG1        0.5708
     32 C          24.9240   22.4410   13.0570 C.ar    1  LIG1       -0.3929
     33 H          24.4070   21.8070   12.3380 H       1  LIG1        0.2020
     34 C          25.3730   21.8750   14.2540 C.ar    1  LIG1       -0.0622
     35 H          25.1940   20.8160   14.4350 H       1  LIG1        0.1569
     36 C          24.6370   24.3800   11.4900 C.3     1  LIG1       -0.4160
     37 H          24.1350   23.6220   10.8770 H       1  LIG1        0.1118
     38 H          25.4710   24.7760   10.9020 H       1  LIG1        0.1116
     39 H          23.9120   25.1770   11.6820 H       1  LIG1        0.1099
     40 CL         26.1120   26.2590   13.4780 Cl      1  LIG1        0.1511
@<TRIPOS>BOND
     1     1     2   ar
     2     2     3    1
     3     3     4   ar
     4     4     5    1
     5     4     6   ar
     6     6     7    1
     7     6     8   ar
     8     8     9   ar
     9     9    10    1
    10     9    11   ar
    11    11    12    1
    12    11     3   ar
    13     8    13    1
    14    13    14    2
    15    13    15    2
    16    13    16    1
    17    16    17    1
    18    16    18    1
    19     2    19   ar
    20    19    20    1
    21    19    21   ar
    22    21    22   ar
    23    22    23   ar
    24    23    24    1
    25    23     1   ar
    26    22    25    1
    27    21    26    1
    28     1    27    1
    29    27    28   ar
    30    28    29    1
    31    28    30   ar
    32    30    31   ar
    33    31    32   ar
    34    32    33    1
    35    32    34   ar
    36    34    35    1
    37    34    27   ar
    38    31    36    1
    39    36    37    1
    40    36    38    1
    41    36    39    1
    42    30    40    1
