@<TRIPOS>MOLECULE
7_21p
 39 41 0 0 0
SMALL
USER_CHARGES
****
From 3DB ct
@<TRIPOS>ATOM
      1 C          26.4990   22.0560   16.4520 C.ar    1  LIG1       -0.1270
      2 C          25.5990   21.4680   17.3860 C.ar    1  LIG1       -0.1111
      3 C          24.1430   21.3950   17.1580 C.ar    1  LIG1        0.3330
      4 C          23.5080   22.2940   16.2840 C.ar    1  LIG1       -0.3186
      5 H          24.0880   23.0520   15.7580 H       1  LIG1        0.1889
      6 C          22.1280   22.2300   16.0640 C.ar    1  LIG1        0.0686
      7 H          21.6590   22.9340   15.3790 H       1  LIG1        0.1710
      8 C          21.3680   21.2580   16.7190 C.ar    1  LIG1       -0.5820
      9 C          21.9750   20.3640   17.6020 C.ar    1  LIG1        0.0034
     10 H          21.3920   19.6090   18.1240 H       1  LIG1        0.1888
     11 C          23.3550   20.4350   17.8180 C.ar    1  LIG1       -0.2560
     12 H          23.8150   19.7310   18.5110 H       1  LIG1        0.1965
     13 S          19.6170   21.2030   16.4550 S.O2    1  LIG1        2.4298
     14 O          19.1880   22.4610   15.8710 O.2     1  LIG1       -0.9924
     15 O          18.9640   20.6810   17.6420 O.2     1  LIG1       -0.9914
     16 N          19.4760   20.0270   15.2700 N.3     1  LIG1       -1.3017
     17 H          19.0720   20.4140   14.4130 H       1  LIG1        0.4817
     18 H          18.9360   19.2260   15.6080 H       1  LIG1        0.4848
     19 C          26.1160   20.9020   18.5710 C.ar    1  LIG1       -0.2739
     20 H          25.4540   20.4420   19.3010 H       1  LIG1        0.2273
     21 C          27.4830   20.9040   18.8220 C.ar    1  LIG1        0.3410
     22 C          28.3600   21.4620   17.9080 C.ar    1  LIG1        0.3663
     23 C          27.8820   22.0310   16.7350 C.ar    1  LIG1       -0.3032
     24 H          28.5940   22.4660   16.0360 H       1  LIG1        0.2313
     25 F          29.6790   21.4580   18.1530 F       1  LIG1       -0.3123
     26 F          27.9490   20.3560   19.9530 F       1  LIG1       -0.3088
     27 C          26.0570   22.6980   15.2000 C.ar    1  LIG1        0.7217
     28 C          26.2550   24.0520   14.9410 C.ar    1  LIG1       -0.5908
     29 H          26.7440   24.6950   15.6670 H       1  LIG1        0.2442
     30 C          25.8190   24.5820   13.7290 C.ar    1  LIG1        0.0282
     31 H          25.9590   25.6420   13.5250 H       1  LIG1        0.1718
     32 C          25.2120   23.7510   12.7880 C.ar    1  LIG1       -0.1167
     33 C          25.0530   22.4130   13.1260 C.ar    1  LIG1        0.2358
     34 H          24.5720   21.7170   12.4410 H       1  LIG1        0.1533
     35 N          25.4680   21.8700   14.2970 N.ar    1  LIG1       -0.6878
     36 C          24.6980   24.2900   11.4910 C.3     1  LIG1       -0.2848
     37 H          23.6630   24.6260   11.6080 H       1  LIG1        0.1006
     38 H          24.7350   23.5250   10.7080 H       1  LIG1        0.0936
     39 H          25.3070   25.1330   11.1500 H       1  LIG1        0.0968
@<TRIPOS>BOND
     1     1     2   ar
     2     2     3    1
     3     3     4   ar
     4     4     5    1
     5     4     6   ar
     6     6     7    1
     7     6     8   ar
     8     8     9   ar
     9     9    10    1
    10     9    11   ar
    11    11    12    1
    12    11     3   ar
    13     8    13    1
    14    13    14    2
    15    13    15    2
    16    13    16    1
    17    16    17    1
    18    16    18    1
    19     2    19   ar
    20    19    20    1
    21    19    21   ar
    22    21    22   ar
    23    22    23   ar
    24    23    24    1
    25    23     1   ar
    26    22    25    1
    27    21    26    1
    28     1    27    1
    29    27    28   ar
    30    28    29    1
    31    28    30   ar
    32    30    31    1
    33    30    32   ar
    34    32    33   ar
    35    33    34    1
    36    33    35   ar
    37    35    27   ar
    38    32    36    1
    39    36    37    1
    40    36    38    1
    41    36    39    1
