@<TRIPOS>MOLECULE
7_21q
 39 41 0 0 0
SMALL
USER_CHARGES
****
From 3DB ct
@<TRIPOS>ATOM
      1 C          26.5060   22.0660   16.4830 C.ar    1  LIG1       -0.0166
      2 C          25.6070   21.4420   17.3930 C.ar    1  LIG1       -0.0669
      3 C          24.1530   21.3910   17.1610 C.ar    1  LIG1        0.3231
      4 C          23.5270   22.2910   16.2810 C.ar    1  LIG1       -0.3170
      5 H          24.1140   23.0440   15.7580 H       1  LIG1        0.1952
      6 C          22.1480   22.2380   16.0620 C.ar    1  LIG1        0.0683
      7 H          21.6850   22.9430   15.3740 H       1  LIG1        0.1774
      8 C          21.3760   21.2880   16.7350 C.ar    1  LIG1       -0.5823
      9 C          21.9760   20.3850   17.6150 C.ar    1  LIG1       -0.0134
     10 H          21.3850   19.6390   18.1400 H       1  LIG1        0.2008
     11 C          23.3570   20.4420   17.8270 C.ar    1  LIG1       -0.2722
     12 H          23.8130   19.7320   18.5160 H       1  LIG1        0.1930
     13 S          19.6330   21.2120   16.4300 S.O2    1  LIG1        2.4511
     14 O          19.1950   22.4480   15.8060 O.2     1  LIG1       -0.9959
     15 O          18.9670   20.7110   17.6190 O.2     1  LIG1       -0.9945
     16 N          19.5300   20.0180   15.2600 N.3     1  LIG1       -1.3005
     17 H          19.1540   20.3910   14.3840 H       1  LIG1        0.4829
     18 H          18.9820   19.2210   15.5920 H       1  LIG1        0.4837
     19 C          26.1210   20.8500   18.5640 C.ar    1  LIG1       -0.3344
     20 H          25.4570   20.3690   19.2790 H       1  LIG1        0.2421
     21 C          27.4840   20.8750   18.8310 C.ar    1  LIG1        0.3617
     22 C          28.3600   21.4810   17.9440 C.ar    1  LIG1        0.3508
     23 C          27.8850   22.0700   16.7790 C.ar    1  LIG1       -0.3072
     24 H          28.5970   22.5300   16.0980 H       1  LIG1        0.2422
     25 F          29.6750   21.4980   18.2050 F       1  LIG1       -0.3081
     26 F          27.9500   20.3060   19.9520 F       1  LIG1       -0.3085
     27 C          26.0530   22.6870   15.2240 C.ar    1  LIG1       -0.2643
     28 C          26.2210   24.0570   14.9370 C.ar    1  LIG1        0.1150
     29 H          26.6240   24.6310   15.5790 H       1  LIG1        0.1531
     30 C          25.7850   24.5490   13.6990 C.ar    1  LIG1       -0.6244
     31 H          25.9050   25.5960   13.4330 H       1  LIG1        0.2501
     32 C          25.1870   23.6830   12.7980 C.ar    1  LIG1        0.6894
     33 N          25.0020   22.3670   13.0370 N.ar    1  LIG1       -0.7241
     34 C          25.4380   21.9070   14.2380 C.ar    1  LIG1        0.3819
     35 H          25.2820   20.8400   14.3980 H       1  LIG1        0.1099
     36 C          24.7050   24.1810   11.4680 C.3     1  LIG1       -0.3403
     37 H          24.3250   23.4610   10.9790 H       1  LIG1        0.1159
     38 H          24.0490   24.8550   11.6010 H       1  LIG1        0.0886
     39 H          25.4370   24.5430   10.9810 H       1  LIG1        0.0944
@<TRIPOS>BOND
     1     1     2   ar
     2     2     3    1
     3     3     4   ar
     4     4     5    1
     5     4     6   ar
     6     6     7    1
     7     6     8   ar
     8     8     9   ar
     9     9    10    1
    10     9    11   ar
    11    11    12    1
    12    11     3   ar
    13     8    13    1
    14    13    14    2
    15    13    15    2
    16    13    16    1
    17    16    17    1
    18    16    18    1
    19     2    19   ar
    20    19    20    1
    21    19    21   ar
    22    21    22   ar
    23    22    23   ar
    24    23    24    1
    25    23     1   ar
    26    22    25    1
    27    21    26    1
    28     1    27    1
    29    27    28   ar
    30    28    29    1
    31    28    30   ar
    32    30    31    1
    33    30    32   ar
    34    32    33   ar
    35    33    34   ar
    36    34    35    1
    37    34    27   ar
    38    32    36    1
    39    36    37    1
    40    36    38    1
    41    36    39    1
