@<TRIPOS>MOLECULE
7_21d
 41 43 0 0 0
SMALL
USER_CHARGES
****
From 3DB ct
@<TRIPOS>ATOM
      1 C          26.5050   22.0580   16.4730 C.ar    1  LIG1        0.1509
      2 C          25.6130   21.4420   17.3960 C.ar    1  LIG1       -0.2201
      3 C          24.1590   21.3940   17.1690 C.ar    1  LIG1        0.4169
      4 C          23.5420   22.2870   16.2770 C.ar    1  LIG1       -0.3507
      5 H          24.1360   23.0340   15.7520 H       1  LIG1        0.2156
      6 C          22.1650   22.2300   16.0460 C.ar    1  LIG1        0.0594
      7 H          21.7070   22.9280   15.3480 H       1  LIG1        0.1814
      8 C          21.3920   21.2730   16.7070 C.ar    1  LIG1       -0.5723
      9 C          21.9830   20.3860   17.6090 C.ar    1  LIG1       -0.0158
     10 H          21.3890   19.6410   18.1340 H       1  LIG1        0.1998
     11 C          23.3610   20.4500   17.8370 C.ar    1  LIG1       -0.3026
     12 H          23.8140   19.7470   18.5350 H       1  LIG1        0.1988
     13 S          19.6450   21.2190   16.4150 S.O2    1  LIG1        2.4421
     14 O          19.2290   22.4810   15.8290 O.2     1  LIG1       -0.9935
     15 O          18.9720   20.6930   17.5890 O.2     1  LIG1       -0.9936
     16 N          19.5210   20.0480   15.2240 N.3     1  LIG1       -1.2914
     17 H          19.1340   20.4370   14.3600 H       1  LIG1        0.4799
     18 H          18.9750   19.2460   15.5500 H       1  LIG1        0.4795
     19 C          26.1320   20.8690   18.5730 C.ar    1  LIG1       -0.2784
     20 H          25.4730   20.3940   19.2960 H       1  LIG1        0.2338
     21 C          27.4960   20.9110   18.8360 C.ar    1  LIG1        0.3366
     22 C          28.3640   21.5170   17.9410 C.ar    1  LIG1        0.3830
     23 C          27.8820   22.0880   16.7700 C.ar    1  LIG1       -0.3965
     24 H          28.5870   22.5490   16.0820 H       1  LIG1        0.2722
     25 F          29.6790   21.5530   18.2020 F       1  LIG1       -0.3119
     26 F          27.9700   20.3620   19.9630 F       1  LIG1       -0.3068
     27 C          26.0410   22.6550   15.2090 C.ar    1  LIG1       -0.1220
     28 C          26.2580   24.0110   14.9320 C.ar    1  LIG1       -0.3464
     29 H          26.7730   24.6460   15.6480 H       1  LIG1        0.2628
     30 C          25.8060   24.5750   13.7370 C.ar    1  LIG1        0.3609
     31 C          25.1330   23.8050   12.7850 C.ar    1  LIG1        0.2973
     32 C          24.9210   22.4510   13.0540 C.ar    1  LIG1       -0.4038
     33 H          24.4000   21.8260   12.3310 H       1  LIG1        0.2288
     34 C          25.3720   21.8810   14.2490 C.ar    1  LIG1        0.0243
     35 H          25.1910   20.8210   14.4280 H       1  LIG1        0.1444
     36 O          24.6360   24.2210   11.5790 O.3     1  LIG1       -0.3706
     37 C          24.8180   25.5930   11.2390 C.3     1  LIG1        0.0350
     38 H          24.3680   25.7530   10.2540 H       1  LIG1        0.0880
     39 H          25.8810   25.8420   11.1630 H       1  LIG1        0.0714
     40 H          24.3000   26.2460   11.9490 H       1  LIG1        0.0755
     41 F          26.0430   25.8800   13.5420 F       1  LIG1       -0.3618
@<TRIPOS>BOND
     1     1     2   ar
     2     2     3    1
     3     3     4   ar
     4     4     5    1
     5     4     6   ar
     6     6     7    1
     7     6     8   ar
     8     8     9   ar
     9     9    10    1
    10     9    11   ar
    11    11    12    1
    12    11     3   ar
    13     8    13    1
    14    13    14    2
    15    13    15    2
    16    13    16    1
    17    16    17    1
    18    16    18    1
    19     2    19   ar
    20    19    20    1
    21    19    21   ar
    22    21    22   ar
    23    22    23   ar
    24    23    24    1
    25    23     1   ar
    26    22    25    1
    27    21    26    1
    28     1    27    1
    29    27    28   ar
    30    28    29    1
    31    28    30   ar
    32    30    31   ar
    33    31    32   ar
    34    32    33    1
    35    32    34   ar
    36    34    35    1
    37    34    27   ar
    38    31    36    1
    39    36    37    1
    40    37    38    1
    41    37    39    1
    42    37    40    1
    43    30    41    1
