@<TRIPOS>MOLECULE
7_21g
 44 46 0 0 0
SMALL
USER_CHARGES
****
From 3DB ct
@<TRIPOS>ATOM
      1 C          26.5020   22.0610   16.4730 C.ar    1  LIG1        0.1711
      2 C          25.6050   21.4430   17.3900 C.ar    1  LIG1       -0.2550
      3 C          24.1500   21.3840   17.1590 C.ar    1  LIG1        0.4398
      4 C          23.5210   22.2850   16.2830 C.ar    1  LIG1       -0.3500
      5 H          24.1070   23.0430   15.7640 H       1  LIG1        0.2095
      6 C          22.1420   22.2270   16.0620 C.ar    1  LIG1        0.0647
      7 H          21.6780   22.9330   15.3760 H       1  LIG1        0.1828
      8 C          21.3770   21.2620   16.7190 C.ar    1  LIG1       -0.5923
      9 C          21.9780   20.3650   17.6040 C.ar    1  LIG1       -0.0136
     10 H          21.3900   19.6140   18.1270 H       1  LIG1        0.2004
     11 C          23.3580   20.4290   17.8210 C.ar    1  LIG1       -0.3093
     12 H          23.8170   19.7180   18.5080 H       1  LIG1        0.1991
     13 S          19.6260   21.2150   16.4530 S.O2    1  LIG1        2.4611
     14 O          19.2030   22.4790   15.8770 O.2     1  LIG1       -1.0003
     15 O          18.9690   20.6870   17.6360 O.2     1  LIG1       -0.9995
     16 N          19.4810   20.0490   15.2600 N.3     1  LIG1       -1.2919
     17 H          19.0830   20.4430   14.4030 H       1  LIG1        0.4771
     18 H          18.9380   19.2480   15.5900 H       1  LIG1        0.4772
     19 C          26.1210   20.8750   18.5730 C.ar    1  LIG1       -0.2573
     20 H          25.4590   20.3990   19.2940 H       1  LIG1        0.2265
     21 C          27.4820   20.9240   18.8470 C.ar    1  LIG1        0.3171
     22 C          28.3540   21.5330   17.9580 C.ar    1  LIG1        0.3847
     23 C          27.8770   22.0970   16.7820 C.ar    1  LIG1       -0.3960
     24 H          28.5860   22.5600   16.0990 H       1  LIG1        0.2610
     25 F          29.6660   21.5760   18.2280 F       1  LIG1       -0.3120
     26 F          27.9490   20.3810   19.9800 F       1  LIG1       -0.3064
     27 C          26.0520   22.6550   15.2010 C.ar    1  LIG1       -0.1172
     28 C          26.2750   24.0120   14.9250 C.ar    1  LIG1       -0.1634
     29 H          26.7810   24.6310   15.6670 H       1  LIG1        0.1936
     30 C          25.8490   24.5930   13.7170 C.ar    1  LIG1       -0.0546
     31 C          25.1870   23.8010   12.7620 C.ar    1  LIG1        0.3565
     32 C          24.9710   22.4470   13.0270 C.ar    1  LIG1       -0.3513
     33 H          24.4710   21.7930   12.3170 H       1  LIG1        0.1817
     34 C          25.4010   21.8810   14.2320 C.ar    1  LIG1       -0.0901
     35 H          25.2210   20.8220   14.4080 H       1  LIG1        0.1641
     36 O          24.8020   24.4450   11.6150 O.3     1  LIG1       -0.3600
     37 C          24.0590   23.6880   10.6620 C.3     1  LIG1        0.0233
     38 H          23.8000   24.3550    9.8350 H       1  LIG1        0.0936
     39 H          23.1240   23.3170   11.0960 H       1  LIG1        0.0582
     40 H          24.6620   22.8700   10.2550 H       1  LIG1        0.0624
     41 C          26.1040   26.0560   13.4690 C.3     1  LIG1       -0.2166
     42 H          26.7310   26.1850   12.5810 H       1  LIG1        0.0771
     43 H          26.6220   26.5230   14.3120 H       1  LIG1        0.0763
     44 H          25.1570   26.5860   13.3270 H       1  LIG1        0.0779
@<TRIPOS>BOND
     1     1     2   ar
     2     2     3    1
     3     3     4   ar
     4     4     5    1
     5     4     6   ar
     6     6     7    1
     7     6     8   ar
     8     8     9   ar
     9     9    10    1
    10     9    11   ar
    11    11    12    1
    12    11     3   ar
    13     8    13    1
    14    13    14    2
    15    13    15    2
    16    13    16    1
    17    16    17    1
    18    16    18    1
    19     2    19   ar
    20    19    20    1
    21    19    21   ar
    22    21    22   ar
    23    22    23   ar
    24    23    24    1
    25    23     1   ar
    26    22    25    1
    27    21    26    1
    28     1    27    1
    29    27    28   ar
    30    28    29    1
    31    28    30   ar
    32    30    31   ar
    33    31    32   ar
    34    32    33    1
    35    32    34   ar
    36    34    35    1
    37    34    27   ar
    38    31    36    1
    39    36    37    1
    40    37    38    1
    41    37    39    1
    42    37    40    1
    43    30    41    1
    44    41    42    1
    45    41    43    1
    46    41    44    1
