@<TRIPOS>MOLECULE
7_21c
 40 42 0 0 0
SMALL
USER_CHARGES
****
From 3DB ct
@<TRIPOS>ATOM
      1 C          26.5030   22.0590   16.4710 C.ar    1  LIG1        0.1281
      2 C          25.6070   21.4430   17.3890 C.ar    1  LIG1       -0.2271
      3 C          24.1510   21.3850   17.1590 C.ar    1  LIG1        0.4416
      4 C          23.5230   22.2860   16.2820 C.ar    1  LIG1       -0.3710
      5 H          24.1100   23.0410   15.7600 H       1  LIG1        0.2121
      6 C          22.1430   22.2330   16.0660 C.ar    1  LIG1        0.0810
      7 H          21.6780   22.9390   15.3820 H       1  LIG1        0.1808
      8 C          21.3750   21.2790   16.7370 C.ar    1  LIG1       -0.6054
      9 C          21.9780   20.3740   17.6130 C.ar    1  LIG1        0.0067
     10 H          21.3890   19.6240   18.1370 H       1  LIG1        0.1984
     11 C          23.3590   20.4330   17.8240 C.ar    1  LIG1       -0.3211
     12 H          23.8180   19.7210   18.5090 H       1  LIG1        0.2014
     13 S          19.6300   21.2070   16.4390 S.O2    1  LIG1        2.4616
     14 O          19.1700   22.4910   15.9380 O.2     1  LIG1       -0.9984
     15 O          18.9830   20.5860   17.5800 O.2     1  LIG1       -0.9964
     16 N          19.5350   20.1290   15.1610 N.3     1  LIG1       -1.2974
     17 H          19.1480   20.5770   14.3260 H       1  LIG1        0.4815
     18 H          19.0010   19.2950   15.4200 H       1  LIG1        0.4803
     19 C          26.1220   20.8770   18.5730 C.ar    1  LIG1       -0.2715
     20 H          25.4600   20.4030   19.2950 H       1  LIG1        0.2306
     21 C          27.4830   20.9240   18.8450 C.ar    1  LIG1        0.3346
     22 C          28.3550   21.5300   17.9550 C.ar    1  LIG1        0.3805
     23 C          27.8780   22.0950   16.7780 C.ar    1  LIG1       -0.3879
     24 H          28.5870   22.5590   16.0960 H       1  LIG1        0.2641
     25 F          29.6680   21.5720   18.2240 F       1  LIG1       -0.3108
     26 F          27.9510   20.3820   19.9790 F       1  LIG1       -0.3065
     27 C          26.0510   22.6540   15.2000 C.ar    1  LIG1       -0.0584
     28 C          26.2730   24.0160   14.9280 C.ar    1  LIG1       -0.2414
     29 H          26.7760   24.6360   15.6710 H       1  LIG1        0.2234
     30 C          25.8460   24.5960   13.7240 C.ar    1  LIG1       -0.0169
     31 C          25.1770   23.7960   12.7970 C.ar    1  LIG1        0.4479
     32 C          24.9540   22.4460   13.0380 C.ar    1  LIG1       -0.3790
     33 H          24.4360   21.8420   12.2980 H       1  LIG1        0.2337
     34 C          25.3930   21.8750   14.2330 C.ar    1  LIG1       -0.0662
     35 H          25.2140   20.8160   14.4110 H       1  LIG1        0.1626
     36 F          24.7360   24.3300   11.6490 F       1  LIG1       -0.3308
     37 C          26.0510   26.0580   13.4640 C.3     1  LIG1       -0.2235
     38 H          26.2890   26.2350   12.4100 H       1  LIG1        0.0943
     39 H          26.8850   26.4500   14.0540 H       1  LIG1        0.0748
     40 H          25.1460   26.6150   13.7240 H       1  LIG1        0.0898
@<TRIPOS>BOND
     1     1     2   ar
     2     2     3    1
     3     3     4   ar
     4     4     5    1
     5     4     6   ar
     6     6     7    1
     7     6     8   ar
     8     8     9   ar
     9     9    10    1
    10     9    11   ar
    11    11    12    1
    12    11     3   ar
    13     8    13    1
    14    13    14    2
    15    13    15    2
    16    13    16    1
    17    16    17    1
    18    16    18    1
    19     2    19   ar
    20    19    20    1
    21    19    21   ar
    22    21    22   ar
    23    22    23   ar
    24    23    24    1
    25    23     1   ar
    26    22    25    1
    27    21    26    1
    28     1    27    1
    29    27    28   ar
    30    28    29    1
    31    28    30   ar
    32    30    31   ar
    33    31    32   ar
    34    32    33    1
    35    32    34   ar
    36    34    35    1
    37    34    27   ar
    38    31    36    1
    39    30    37    1
    40    37    38    1
    41    37    39    1
    42    37    40    1
