@<TRIPOS>MOLECULE
8_1ar
 45 48 0 0 0
SMALL
USER_CHARGES
****
From 3DB ct
@<TRIPOS>ATOM
      1 C          21.2590   21.1730   16.9110 C.ar    1  LIG1       -0.6199
      2 C          21.9690   20.3170   17.7530 C.ar    1  LIG1        0.0684
      3 H          21.4570   19.5550   18.3370 H       1  LIG1        0.1857
      4 C          23.3600   20.4340   17.8450 C.ar    1  LIG1       -0.2203
      5 H          23.8900   19.7460   18.5030 H       1  LIG1        0.1901
      6 C          24.0550   21.4010   17.0930 C.ar    1  LIG1        0.3274
      7 C          23.3220   22.2720   16.2740 C.ar    1  LIG1       -0.2822
      8 H          23.7880   23.0810   15.7210 H       1  LIG1        0.1616
      9 C          21.9290   22.1570   16.1810 C.ar    1  LIG1        0.0814
     10 H          21.3780   22.8430   15.5410 H       1  LIG1        0.1834
     11 N          25.4790   21.4880   17.2200 N.ar    1  LIG1       -0.0257
     12 C          26.4260   22.1410   16.4280 C.ar    1  LIG1        0.1940
     13 C          26.2290   22.7190   15.1010 C.ar    1  LIG1        0.0190
     14 C          25.7700   21.9270   14.0480 C.ar    1  LIG1       -0.1616
     15 H          25.5760   20.8650   14.1940 H       1  LIG1        0.1706
     16 C          25.5600   22.4880   12.7860 C.ar    1  LIG1       -0.1854
     17 H          25.2050   21.8420   11.9830 H       1  LIG1        0.2118
     18 C          25.7930   23.8520   12.5520 C.ar    1  LIG1       -0.1139
     19 C          26.2570   24.6590   13.6010 C.ar    1  LIG1        0.2216
     20 C          26.4500   24.0830   14.8740 C.ar    1  LIG1       -0.3133
     21 H          26.7820   24.7170   15.6970 H       1  LIG1        0.1960
     22 C          26.5120   26.1390   13.4600 C.3     1  LIG1       -0.1836
     23 H          27.3940   26.4120   14.0550 H       1  LIG1        0.0711
     24 H          25.6550   26.6750   13.8870 H       1  LIG1        0.0905
     25 C          26.7480   26.6120   12.0310 C.3     1  LIG1       -0.0587
     26 H          26.8630   27.7030   12.0380 H       1  LIG1        0.0514
     27 H          27.6880   26.2020   11.6390 H       1  LIG1        0.0714
     28 C          25.5840   26.2410   11.1330 C.3     1  LIG1       -0.2212
     29 H          24.6350   26.5960   11.5500 H       1  LIG1        0.1107
     30 H          25.7060   26.7050   10.1490 H       1  LIG1        0.1454
     31 S          25.4920   24.4410   10.8920 S.3     1  LIG1       -0.0410
     32 C          27.6180   22.0600   17.1250 C.ar    1  LIG1       -0.4196
     33 H          28.5710   22.4730   16.8200 H       1  LIG1        0.2769
     34 C          27.3650   21.2650   18.2620 C.ar    1  LIG1       -0.1672
     35 N          26.0780   20.8700   18.2870 N.ar    1  LIG1       -0.2827
     36 C          28.3660   20.8520   19.3080 C.3     1  LIG1        1.5016
     37 F          29.5790   21.4610   19.1510 F       1  LIG1       -0.4585
     38 F          28.6100   19.5080   19.2930 F       1  LIG1       -0.4473
     39 F          27.9530   21.1530   20.5750 F       1  LIG1       -0.4515
     40 S          19.4940   21.0600   16.8110 S.O2    1  LIG1        2.4345
     41 O          18.9580   22.3440   16.3950 O.2     1  LIG1       -0.9923
     42 O          18.9830   20.3990   17.9990 O.2     1  LIG1       -0.9858
     43 N          19.2830   19.9970   15.5330 N.3     1  LIG1       -1.3070
     44 H          18.7840   20.4440   14.7590 H       1  LIG1        0.4851
     45 H          18.8090   19.1430   15.8390 H       1  LIG1        0.4894
@<TRIPOS>BOND
     1     1     2   ar
     2     2     3    1
     3     2     4   ar
     4     4     5    1
     5     4     6   ar
     6     6     7   ar
     7     7     8    1
     8     7     9   ar
     9     9    10    1
    10     9     1   ar
    11     6    11    1
    12    11    12   ar
    13    12    13    1
    14    13    14   ar
    15    14    15    1
    16    14    16   ar
    17    16    17    1
    18    16    18   ar
    19    18    19   ar
    20    19    20   ar
    21    20    21    1
    22    20    13   ar
    23    19    22    1
    24    22    23    1
    25    22    24    1
    26    22    25    1
    27    25    26    1
    28    25    27    1
    29    25    28    1
    30    28    29    1
    31    28    30    1
    32    28    31    1
    33    31    18    1
    34    12    32   ar
    35    32    33    1
    36    32    34   ar
    37    34    35   ar
    38    35    11   ar
    39    34    36    1
    40    36    37    1
    41    36    38    1
    42    36    39    1
    43     1    40    1
    44    40    41    2
    45    40    42    2
    46    40    43    1
    47    43    44    1
    48    43    45    1
