@<TRIPOS>MOLECULE
8_1ab
 45 47 0 0 0
SMALL
USER_CHARGES
****
From 3DB ct
@<TRIPOS>ATOM
      1 C          21.2360   21.1750   16.9490 C.ar    1  LIG1       -0.6244
      2 C          21.9610   20.3230   17.7820 C.ar    1  LIG1        0.0602
      3 H          21.4570   19.5550   18.3650 H       1  LIG1        0.1876
      4 C          23.3510   20.4600   17.8710 C.ar    1  LIG1       -0.2165
      5 H          23.8880   19.7780   18.5300 H       1  LIG1        0.1894
      6 C          24.0330   21.4380   17.1180 C.ar    1  LIG1        0.3400
      7 C          23.2850   22.2920   16.2960 C.ar    1  LIG1       -0.3082
      8 H          23.7290   23.0970   15.7250 H       1  LIG1        0.1722
      9 C          21.8930   22.1570   16.2050 C.ar    1  LIG1        0.1030
     10 H          21.3340   22.8310   15.5600 H       1  LIG1        0.1776
     11 N          25.4610   21.5260   17.2330 N.ar    1  LIG1       -0.0278
     12 C          26.4140   22.1260   16.4080 C.ar    1  LIG1        0.2099
     13 C          26.2130   22.7360   15.1000 C.ar    1  LIG1       -0.0623
     14 C          26.4730   24.0900   14.9050 C.ar    1  LIG1       -0.2614
     15 H          26.7920   24.7240   15.7290 H       1  LIG1        0.2254
     16 C          26.3250   24.6560   13.6350 C.ar    1  LIG1        0.3877
     17 C          25.9270   23.9120   12.5010 C.ar    1  LIG1        0.0585
     18 C          25.6870   22.5430   12.7350 C.ar    1  LIG1       -0.2551
     19 H          25.3860   21.8780   11.9280 H       1  LIG1        0.1808
     20 C          25.8270   21.9620   14.0060 C.ar    1  LIG1       -0.1387
     21 H          25.6360   20.8950   14.1200 H       1  LIG1        0.1798
     22 N          25.7810   24.4620   11.2280 N.pl3   1  LIG1       -0.2248
     23 C          25.9530   25.8970   10.9920 C.3     1  LIG1       -0.1060
     24 H          25.6940   26.1710    9.9620 H       1  LIG1        0.0966
     25 H          26.9950   26.1920   11.1520 H       1  LIG1        0.0920
     26 H          25.2960   26.4850   11.6420 H       1  LIG1        0.0938
     27 C          25.5020   23.6200   10.0620 C.3     1  LIG1       -0.0271
     28 H          25.4760   24.2010    9.1340 H       1  LIG1        0.0915
     29 H          24.5270   23.1310   10.1610 H       1  LIG1        0.0524
     30 H          26.2810   22.8590    9.9380 H       1  LIG1        0.0575
     31 F          26.6070   25.9660   13.5310 F       1  LIG1       -0.3636
     32 C          27.6320   21.9540   17.0380 C.ar    1  LIG1       -0.4294
     33 H          28.5980   22.2890   16.6750 H       1  LIG1        0.2745
     34 C          27.3770   21.2050   18.2020 C.ar    1  LIG1       -0.1410
     35 N          26.0640   20.9390   18.3180 N.ar    1  LIG1       -0.2970
     36 C          28.4060   20.7340   19.1950 C.3     1  LIG1        1.4771
     37 F          29.6250   20.5130   18.6170 F       1  LIG1       -0.4539
     38 F          28.0610   19.5630   19.8100 F       1  LIG1       -0.4409
     39 F          28.6170   21.6430   20.1930 F       1  LIG1       -0.4494
     40 S          19.4810   20.9800   16.8040 S.O2    1  LIG1        2.4269
     41 O          18.9020   22.2250   16.3270 O.2     1  LIG1       -0.9902
     42 O          18.9640   20.3370   17.9980 O.2     1  LIG1       -0.9846
     43 N          19.3550   19.8690   15.5580 N.3     1  LIG1       -1.3025
     44 H          18.8490   20.2660   14.7610 H       1  LIG1        0.4834
     45 H          18.9160   19.0030   15.8840 H       1  LIG1        0.4873
@<TRIPOS>BOND
     1     1     2   ar
     2     2     3    1
     3     2     4   ar
     4     4     5    1
     5     4     6   ar
     6     6     7   ar
     7     7     8    1
     8     7     9   ar
     9     9    10    1
    10     9     1   ar
    11     6    11    1
    12    11    12   ar
    13    12    13    1
    14    13    14   ar
    15    14    15    1
    16    14    16   ar
    17    16    17   ar
    18    17    18   ar
    19    18    19    1
    20    18    20   ar
    21    20    21    1
    22    20    13   ar
    23    17    22    1
    24    22    23    1
    25    23    24    1
    26    23    25    1
    27    23    26    1
    28    22    27    1
    29    27    28    1
    30    27    29    1
    31    27    30    1
    32    16    31    1
    33    12    32   ar
    34    32    33    1
    35    32    34   ar
    36    34    35   ar
    37    35    11   ar
    38    34    36    1
    39    36    37    1
    40    36    38    1
    41    36    39    1
    42     1    40    1
    43    40    41    2
    44    40    42    2
    45    40    43    1
    46    43    44    1
    47    43    45    1
