@<TRIPOS>MOLECULE
8_1at
 43 46 0 0 0
SMALL
USER_CHARGES
****
From 3DB ct
@<TRIPOS>ATOM
      1 C          21.2630   21.1770   16.9050 C.ar    1  LIG1       -0.6176
      2 C          21.9720   20.3200   17.7470 C.ar    1  LIG1        0.0540
      3 H          21.4590   19.5590   18.3310 H       1  LIG1        0.1911
      4 C          23.3630   20.4360   17.8410 C.ar    1  LIG1       -0.2157
      5 H          23.8930   19.7480   18.4990 H       1  LIG1        0.1892
      6 C          24.0580   21.4030   17.0880 C.ar    1  LIG1        0.3533
      7 C          23.3270   22.2740   16.2690 C.ar    1  LIG1       -0.2800
      8 H          23.7950   23.0830   15.7180 H       1  LIG1        0.1662
      9 C          21.9340   22.1610   16.1760 C.ar    1  LIG1        0.0777
     10 H          21.3840   22.8490   15.5360 H       1  LIG1        0.1847
     11 N          25.4820   21.4900   17.2160 N.ar    1  LIG1       -0.1047
     12 C          26.4280   22.1500   16.4300 C.ar    1  LIG1        0.3469
     13 C          26.2310   22.7370   15.1050 C.ar    1  LIG1       -0.2026
     14 C          25.7600   21.9320   14.0430 C.ar    1  LIG1       -0.1814
     15 H          25.5760   20.8710   14.2170 H       1  LIG1        0.2050
     16 C          25.5300   22.4700   12.7650 C.ar    1  LIG1        0.0236
     17 C          25.7930   23.8180   12.5950 C.ar    1  LIG1        0.1617
     18 C          26.2390   24.6090   13.6300 C.ar    1  LIG1        0.2446
     19 C          26.4600   24.1040   14.8940 C.ar    1  LIG1       -0.2448
     20 H          26.8030   24.7550   15.6930 H       1  LIG1        0.2364
     21 O          26.4250   25.9040   13.2550 O.3     1  LIG1       -0.4048
     22 C          26.0510   25.8450   11.8590 C.3     1  LIG1        0.2792
     23 H          25.2180   26.5370   11.6890 H       1  LIG1        0.1001
     24 H          26.9070   26.1620   11.2520 H       1  LIG1        0.0956
     25 O          25.6490   24.5210   11.4380 O.3     1  LIG1       -0.3737
     26 C          25.0660   21.6100   11.6320 C.3     1  LIG1       -0.2264
     27 H          24.2720   22.1110   11.0680 H       1  LIG1        0.0947
     28 H          24.6580   20.6610   11.9940 H       1  LIG1        0.0762
     29 H          25.9010   21.3930   10.9590 H       1  LIG1        0.0967
     30 C          27.6200   22.0660   17.1260 C.ar    1  LIG1       -0.4457
     31 H          28.5730   22.4830   16.8230 H       1  LIG1        0.2857
     32 C          27.3680   21.2630   18.2570 C.ar    1  LIG1       -0.1828
     33 N          26.0820   20.8650   18.2790 N.ar    1  LIG1       -0.2606
     34 C          28.3690   20.8460   19.3010 C.3     1  LIG1        1.5180
     35 F          29.5700   21.4850   19.1700 F       1  LIG1       -0.4607
     36 F          28.6430   19.5080   19.2540 F       1  LIG1       -0.4509
     37 F          27.9400   21.1050   20.5720 F       1  LIG1       -0.4551
     38 S          19.4970   21.0640   16.8070 S.O2    1  LIG1        2.4385
     39 O          18.9600   22.3480   16.3920 O.2     1  LIG1       -0.9926
     40 O          18.9890   20.4030   17.9960 O.2     1  LIG1       -0.9873
     41 N          19.2850   20.0020   15.5290 N.3     1  LIG1       -1.3022
     42 H          18.7870   20.4500   14.7550 H       1  LIG1        0.4837
     43 H          18.8110   19.1480   15.8340 H       1  LIG1        0.4869
@<TRIPOS>BOND
     1     1     2   ar
     2     2     3    1
     3     2     4   ar
     4     4     5    1
     5     4     6   ar
     6     6     7   ar
     7     7     8    1
     8     7     9   ar
     9     9    10    1
    10     9     1   ar
    11     6    11    1
    12    11    12   ar
    13    12    13    1
    14    13    14   ar
    15    14    15    1
    16    14    16   ar
    17    16    17   ar
    18    17    18   ar
    19    18    19   ar
    20    19    20    1
    21    19    13   ar
    22    18    21    1
    23    21    22    1
    24    22    23    1
    25    22    24    1
    26    22    25    1
    27    25    17    1
    28    16    26    1
    29    26    27    1
    30    26    28    1
    31    26    29    1
    32    12    30   ar
    33    30    31    1
    34    30    32   ar
    35    32    33   ar
    36    33    11   ar
    37    32    34    1
    38    34    35    1
    39    34    36    1
    40    34    37    1
    41     1    38    1
    42    38    39    2
    43    38    40    2
    44    38    41    1
    45    41    42    1
    46    41    43    1
