@<TRIPOS>MOLECULE
8_1al
 34 36 0 0 0
SMALL
USER_CHARGES
****
From 3DB ct
@<TRIPOS>ATOM
      1 C          21.2610   21.1820   16.9100 C.ar    1  LIG1       -0.6362
      2 C          21.9600   20.3150   17.7500 C.ar    1  LIG1        0.0859
      3 H          21.4370   19.5580   18.3320 H       1  LIG1        0.1839
      4 C          23.3520   20.4140   17.8440 C.ar    1  LIG1       -0.2501
      5 H          23.8730   19.7180   18.5010 H       1  LIG1        0.1984
      6 C          24.0580   21.3740   17.0950 C.ar    1  LIG1        0.3626
      7 C          23.3380   22.2570   16.2770 C.ar    1  LIG1       -0.3678
      8 H          23.8160   23.0640   15.7310 H       1  LIG1        0.1957
      9 C          21.9440   22.1600   16.1830 C.ar    1  LIG1        0.1491
     10 H          21.4030   22.8560   15.5450 H       1  LIG1        0.1650
     11 N          25.4810   21.4480   17.2270 N.ar    1  LIG1        0.0224
     12 C          26.4300   22.1570   16.4920 C.ar    1  LIG1        0.0805
     13 C          26.2440   22.8060   15.2250 C.ar    1  LIG1       -0.0809
     14 S          26.5670   24.4800   15.0260 S.2     1  LIG1        0.4078
     15 C          26.1480   24.4210   13.3860 C.ar    1  LIG1       -0.8449
     16 C          25.7850   23.1680   12.9630 C.ar    1  LIG1        0.2183
     17 H          25.4920   22.9240   11.9480 H       1  LIG1        0.1064
     18 C          25.8510   22.2240   14.0330 C.ar    1  LIG1       -0.2557
     19 H          25.6160   21.1710   13.9260 H       1  LIG1        0.2115
     20 BR         26.1900   25.9250   12.2640 Br      1  LIG1        0.3124
     21 C          27.6160   22.0460   17.1920 C.ar    1  LIG1       -0.3306
     22 H          28.5680   22.4870   16.9270 H       1  LIG1        0.2566
     23 C          27.3600   21.1690   18.2680 C.ar    1  LIG1       -0.1714
     24 N          26.0780   20.7560   18.2500 N.ar    1  LIG1       -0.2886
     25 C          28.3560   20.6950   19.2920 C.3     1  LIG1        1.4967
     26 F          29.5450   21.3650   19.2250 F       1  LIG1       -0.4563
     27 F          28.6580   19.3700   19.1490 F       1  LIG1       -0.4462
     28 F          27.9060   20.8500   20.5730 F       1  LIG1       -0.4479
     29 S          19.4940   21.0900   16.8120 S.O2    1  LIG1        2.4099
     30 O          18.9710   22.3830   16.4080 O.2     1  LIG1       -0.9822
     31 O          18.9800   20.4270   17.9980 O.2     1  LIG1       -0.9779
     32 N          19.2690   20.0410   15.5270 N.3     1  LIG1       -1.3010
     33 H          18.7770   20.5000   14.7570 H       1  LIG1        0.4862
     34 H          18.7840   19.1910   15.8260 H       1  LIG1        0.4887
@<TRIPOS>BOND
     1     1     2   ar
     2     2     3    1
     3     2     4   ar
     4     4     5    1
     5     4     6   ar
     6     6     7   ar
     7     7     8    1
     8     7     9   ar
     9     9    10    1
    10     9     1   ar
    11     6    11    1
    12    11    12   ar
    13    12    13    1
    14    13    14   ar
    15    14    15   ar
    16    15    16   ar
    17    16    17    1
    18    16    18   ar
    19    18    19    1
    20    18    13   ar
    21    15    20    1
    22    12    21   ar
    23    21    22    1
    24    21    23   ar
    25    23    24   ar
    26    24    11   ar
    27    23    25    1
    28    25    26    1
    29    25    27    1
    30    25    28    1
    31     1    29    1
    32    29    30    2
    33    29    31    2
    34    29    32    1
    35    32    33    1
    36    32    34    1
