@<TRIPOS>MOLECULE
8_1ad
 44 46 0 0 0
SMALL
USER_CHARGES
****
From 3DB ct
@<TRIPOS>ATOM
      1 C          21.2490   21.1880   16.9470 C.ar    1  LIG1       -0.6325
      2 C          21.9650   20.3230   17.7740 C.ar    1  LIG1        0.0699
      3 H          21.4560   19.5610   18.3600 H       1  LIG1        0.1873
      4 C          23.3570   20.4380   17.8570 C.ar    1  LIG1       -0.2162
      5 H          23.8910   19.7480   18.5090 H       1  LIG1        0.1883
      6 C          24.0470   21.4050   17.1000 C.ar    1  LIG1        0.3109
      7 C          23.3100   22.2750   16.2850 C.ar    1  LIG1       -0.2704
      8 H          23.7730   23.0820   15.7270 H       1  LIG1        0.1490
      9 C          21.9170   22.1610   16.2010 C.ar    1  LIG1        0.1042
     10 H          21.3620   22.8470   15.5630 H       1  LIG1        0.1799
     11 N          25.4720   21.4910   17.2180 N.ar    1  LIG1       -0.0246
     12 C          26.4140   22.1470   16.4230 C.ar    1  LIG1        0.1780
     13 C          26.2100   22.7320   15.0990 C.ar    1  LIG1       -0.1840
     14 C          26.4590   24.0920   14.8860 C.ar    1  LIG1        0.3019
     15 H          26.7730   24.7250   15.7140 H       1  LIG1        0.0773
     16 C          26.2950   24.6450   13.6150 C.ar    1  LIG1       -0.7356
     17 C          25.9050   23.8360   12.5370 C.ar    1  LIG1        0.6386
     18 C          25.6170   22.4770   12.7400 C.ar    1  LIG1       -0.0177
     19 C          25.8040   21.9310   14.0210 C.ar    1  LIG1       -0.1692
     20 H          25.6220   20.8670   14.1790 H       1  LIG1        0.2124
     21 C          25.1610   21.5840   11.6200 C.3     1  LIG1       -0.3473
     22 H          24.6080   20.7210   12.0050 H       1  LIG1        0.1005
     23 H          26.0240   21.2190   11.0550 H       1  LIG1        0.1229
     24 H          24.4860   22.1170   10.9420 H       1  LIG1        0.1357
     25 O          25.7260   24.3810   11.2890 O.3     1  LIG1       -0.5251
     26 C          26.9470   24.3210   10.5420 C.3     1  LIG1        0.1563
     27 H          27.2500   23.2840   10.3630 H       1  LIG1        0.0101
     28 H          27.7530   24.8680   11.0420 H       1  LIG1        0.0144
     29 H          26.7670   24.7930    9.5720 H       1  LIG1        0.0889
     30 CL         26.5710   26.3400   13.4180 Cl      1  LIG1        0.1777
     31 C          27.6110   22.0600   17.1100 C.ar    1  LIG1       -0.3513
     32 H          28.5640   22.4730   16.7990 H       1  LIG1        0.2537
     33 C          27.3660   21.2590   18.2450 C.ar    1  LIG1       -0.2020
     34 N          26.0780   20.8670   18.2780 N.ar    1  LIG1       -0.2608
     35 C          28.3740   20.8390   19.2800 C.3     1  LIG1        1.4996
     36 F          29.5840   21.4550   19.1230 F       1  LIG1       -0.4553
     37 F          28.6250   19.4960   19.2470 F       1  LIG1       -0.4455
     38 F          27.9680   21.1220   20.5530 F       1  LIG1       -0.4485
     39 S          19.4890   21.0360   16.8090 S.O2    1  LIG1        2.4264
     40 O          18.9320   22.2890   16.3300 O.2     1  LIG1       -0.9873
     41 O          18.9710   20.4120   18.0130 O.2     1  LIG1       -0.9827
     42 N          19.3290   19.9260   15.5650 N.3     1  LIG1       -1.2979
     43 H          18.8430   20.3370   14.7640 H       1  LIG1        0.4840
     44 H          18.8620   19.0750   15.8880 H       1  LIG1        0.4860
@<TRIPOS>BOND
     1     1     2   ar
     2     2     3    1
     3     2     4   ar
     4     4     5    1
     5     4     6   ar
     6     6     7   ar
     7     7     8    1
     8     7     9   ar
     9     9    10    1
    10     9     1   ar
    11     6    11    1
    12    11    12   ar
    13    12    13    1
    14    13    14   ar
    15    14    15    1
    16    14    16   ar
    17    16    17   ar
    18    17    18   ar
    19    18    19   ar
    20    19    20    1
    21    19    13   ar
    22    18    21    1
    23    21    22    1
    24    21    23    1
    25    21    24    1
    26    17    25    1
    27    25    26    1
    28    26    27    1
    29    26    28    1
    30    26    29    1
    31    16    30    1
    32    12    31   ar
    33    31    32    1
    34    31    33   ar
    35    33    34   ar
    36    34    11   ar
    37    33    35    1
    38    35    36    1
    39    35    37    1
    40    35    38    1
    41     1    39    1
    42    39    40    2
    43    39    41    2
    44    39    42    1
    45    42    43    1
    46    42    44    1
