@<TRIPOS>MOLECULE
8_1af
 37 39 0 0 0
SMALL
USER_CHARGES
****
From 3DB ct
@<TRIPOS>ATOM
      1 C          21.2390   21.1750   16.9470 C.ar    1  LIG1       -0.6322
      2 C          21.9630   20.3200   17.7760 C.ar    1  LIG1        0.0758
      3 H          21.4630   19.5530   18.3630 H       1  LIG1        0.1834
      4 C          23.3540   20.4520   17.8580 C.ar    1  LIG1       -0.1989
      5 H          23.8900   19.7660   18.5140 H       1  LIG1        0.1836
      6 C          24.0390   21.4270   17.1050 C.ar    1  LIG1        0.3032
      7 C          23.2910   22.2820   16.2850 C.ar    1  LIG1       -0.3632
      8 H          23.7360   23.0860   15.7130 H       1  LIG1        0.1743
      9 C          21.8980   22.1530   16.2010 C.ar    1  LIG1        0.1532
     10 H          21.3360   22.8280   15.5590 H       1  LIG1        0.1674
     11 N          25.4670   21.5150   17.2270 N.ar    1  LIG1        0.0894
     12 C          26.4230   22.1340   16.4190 C.ar    1  LIG1       -0.2811
     13 C          26.2240   22.7550   15.1100 C.ar    1  LIG1        0.9829
     14 C          26.4730   24.1200   14.8720 C.ar    1  LIG1       -0.9770
     15 C          26.2970   24.6630   13.5950 C.ar    1  LIG1        0.7395
     16 H          26.4830   25.7190   13.4190 H       1  LIG1       -0.0204
     17 C          25.8800   23.8440   12.5490 C.ar    1  LIG1       -0.8064
     18 C          25.6390   22.4890   12.7640 C.ar    1  LIG1        0.4380
     19 H          25.3180   21.8470   11.9470 H       1  LIG1        0.0644
     20 C          25.8140   21.9450   14.0390 C.ar    1  LIG1       -0.6754
     21 H          25.6280   20.8820   14.1880 H       1  LIG1        0.2704
     22 CL         25.6610   24.5100   10.9770 Cl      1  LIG1        0.1615
     23 CL         26.9770   25.1890   16.1370 Cl      1  LIG1        0.2012
     24 C          27.6340   21.9730   17.0680 C.ar    1  LIG1       -0.3583
     25 H          28.5980   22.3310   16.7300 H       1  LIG1        0.2516
     26 C          27.3700   21.2170   18.2270 C.ar    1  LIG1       -0.0430
     27 N          26.0640   20.9070   18.3020 N.ar    1  LIG1       -0.3130
     28 C          28.3810   20.7650   19.2470 C.3     1  LIG1        1.4108
     29 F          29.5260   21.5080   19.2180 F       1  LIG1       -0.4361
     30 F          28.7630   19.4670   19.0570 F       1  LIG1       -0.4319
     31 F          27.9110   20.8430   20.5280 F       1  LIG1       -0.4362
     32 S          19.4810   21.0060   16.8040 S.O2    1  LIG1        2.4073
     33 O          18.9100   22.2580   16.3390 O.2     1  LIG1       -0.9825
     34 O          18.9710   20.3630   18.0030 O.2     1  LIG1       -0.9753
     35 N          19.3330   19.9100   15.5460 N.3     1  LIG1       -1.3066
     36 H          18.8490   20.3300   14.7480 H       1  LIG1        0.4875
     37 H          18.8660   19.0540   15.8570 H       1  LIG1        0.4920
@<TRIPOS>BOND
     1     1     2   ar
     2     2     3    1
     3     2     4   ar
     4     4     5    1
     5     4     6   ar
     6     6     7   ar
     7     7     8    1
     8     7     9   ar
     9     9    10    1
    10     9     1   ar
    11     6    11    1
    12    11    12   ar
    13    12    13    1
    14    13    14   ar
    15    14    15   ar
    16    15    16    1
    17    15    17   ar
    18    17    18   ar
    19    18    19    1
    20    18    20   ar
    21    20    21    1
    22    20    13   ar
    23    17    22    1
    24    14    23    1
    25    12    24   ar
    26    24    25    1
    27    24    26   ar
    28    26    27   ar
    29    27    11   ar
    30    26    28    1
    31    28    29    1
    32    28    30    1
    33    28    31    1
    34     1    32    1
    35    32    33    2
    36    32    34    2
    37    32    35    1
    38    35    36    1
    39    35    37    1
