@<TRIPOS>MOLECULE
8_1c
 37 39 0 0 0
SMALL
USER_CHARGES
****
From 3DB ct
@<TRIPOS>ATOM
      1 C          21.2480   21.1860   16.9480 C.ar    1  LIG1       -0.6243
      2 C          21.9650   20.3210   17.7740 C.ar    1  LIG1        0.0746
      3 H          21.4580   19.5580   18.3610 H       1  LIG1        0.1858
      4 C          23.3570   20.4360   17.8550 C.ar    1  LIG1       -0.2275
      5 H          23.8920   19.7460   18.5070 H       1  LIG1        0.1921
      6 C          24.0470   21.4030   17.0970 C.ar    1  LIG1        0.3413
      7 C          23.3090   22.2730   16.2830 C.ar    1  LIG1       -0.3244
      8 H          23.7710   23.0790   15.7230 H       1  LIG1        0.1777
      9 C          21.9150   22.1590   16.2010 C.ar    1  LIG1        0.1104
     10 H          21.3580   22.8450   15.5650 H       1  LIG1        0.1772
     11 N          25.4720   21.4890   17.2150 N.ar    1  LIG1       -0.0147
     12 C          26.4150   22.1480   16.4230 C.ar    1  LIG1        0.1559
     13 C          26.2120   22.7340   15.0990 C.ar    1  LIG1        0.0690
     14 C          26.4700   24.0930   14.8840 C.ar    1  LIG1       -0.3629
     15 H          26.8000   24.7380   15.6940 H       1  LIG1        0.2329
     16 C          26.2960   24.6370   13.6150 C.ar    1  LIG1        0.5631
     17 C          25.8780   23.8510   12.5470 C.ar    1  LIG1       -0.3447
     18 H          25.7480   24.2960   11.5650 H       1  LIG1        0.2258
     19 C          25.6350   22.4940   12.7490 C.ar    1  LIG1       -0.0730
     20 H          25.3140   21.8680   11.9180 H       1  LIG1        0.1709
     21 C          25.8070   21.9360   14.0180 C.ar    1  LIG1       -0.2123
     22 H          25.6220   20.8710   14.1550 H       1  LIG1        0.1767
     23 F          26.5340   25.9410   13.4190 F       1  LIG1       -0.3648
     24 C          27.6100   22.0640   17.1140 C.ar    1  LIG1       -0.4062
     25 H          28.5610   22.4810   16.8070 H       1  LIG1        0.2727
     26 C          27.3630   21.2640   18.2480 C.ar    1  LIG1       -0.1568
     27 N          26.0770   20.8660   18.2760 N.ar    1  LIG1       -0.2834
     28 C          28.3690   20.8480   19.2880 C.3     1  LIG1        1.5009
     29 F          29.5510   21.5260   19.1820 F       1  LIG1       -0.4569
     30 F          28.6820   19.5210   19.2060 F       1  LIG1       -0.4473
     31 F          27.9250   21.0590   20.5630 F       1  LIG1       -0.4517
     32 S          19.4880   21.0400   16.8120 S.O2    1  LIG1        2.4192
     33 O          18.9320   22.2970   16.3440 O.2     1  LIG1       -0.9857
     34 O          18.9740   20.4080   18.0150 O.2     1  LIG1       -0.9807
     35 N          19.3200   19.9410   15.5590 N.3     1  LIG1       -1.3031
     36 H          18.8350   20.3620   14.7630 H       1  LIG1        0.4855
     37 H          18.8490   19.0890   15.8750 H       1  LIG1        0.4888
@<TRIPOS>BOND
     1     1     2   ar
     2     2     3    1
     3     2     4   ar
     4     4     5    1
     5     4     6   ar
     6     6     7   ar
     7     7     8    1
     8     7     9   ar
     9     9    10    1
    10     9     1   ar
    11     6    11    1
    12    11    12   ar
    13    12    13    1
    14    13    14   ar
    15    14    15    1
    16    14    16   ar
    17    16    17   ar
    18    17    18    1
    19    17    19   ar
    20    19    20    1
    21    19    21   ar
    22    21    22    1
    23    21    13   ar
    24    16    23    1
    25    12    24   ar
    26    24    25    1
    27    24    26   ar
    28    26    27   ar
    29    27    11   ar
    30    26    28    1
    31    28    29    1
    32    28    30    1
    33    28    31    1
    34     1    32    1
    35    32    33    2
    36    32    34    2
    37    32    35    1
    38    35    36    1
    39    35    37    1
