@<TRIPOS>MOLECULE
8_1d
 37 39 0 0 0
SMALL
USER_CHARGES
****
From 3DB ct
@<TRIPOS>ATOM
      1 C          21.2490   21.1850   16.9470 C.ar    1  LIG1       -0.6274
      2 C          21.9650   20.3200   17.7740 C.ar    1  LIG1        0.0756
      3 H          21.4570   19.5580   18.3600 H       1  LIG1        0.1857
      4 C          23.3570   20.4360   17.8550 C.ar    1  LIG1       -0.2240
      5 H          23.8910   19.7460   18.5080 H       1  LIG1        0.1905
      6 C          24.0470   21.4030   17.0990 C.ar    1  LIG1        0.3321
      7 C          23.3100   22.2730   16.2840 C.ar    1  LIG1       -0.3115
      8 H          23.7720   23.0810   15.7260 H       1  LIG1        0.1699
      9 C          21.9160   22.1590   16.2000 C.ar    1  LIG1        0.1073
     10 H          21.3590   22.8440   15.5630 H       1  LIG1        0.1791
     11 N          25.4720   21.4900   17.2170 N.ar    1  LIG1       -0.0146
     12 C          26.4150   22.1450   16.4220 C.ar    1  LIG1        0.1596
     13 C          26.2110   22.7290   15.0980 C.ar    1  LIG1       -0.1141
     14 C          26.4700   24.0910   14.8820 C.ar    1  LIG1        0.0034
     15 H          26.8010   24.7290   15.7010 H       1  LIG1        0.1623
     16 C          26.2960   24.6490   13.6140 C.ar    1  LIG1       -0.4260
     17 H          26.4890   25.7050   13.4450 H       1  LIG1        0.2371
     18 C          25.8760   23.8440   12.5620 C.ar    1  LIG1        0.6386
     19 C          25.6300   22.4890   12.7520 C.ar    1  LIG1       -0.4340
     20 H          25.3090   21.8730   11.9170 H       1  LIG1        0.2409
     21 C          25.8030   21.9290   14.0200 C.ar    1  LIG1       -0.0296
     22 H          25.6190   20.8650   14.1570 H       1  LIG1        0.1702
     23 F          25.7100   24.3800   11.3460 F       1  LIG1       -0.3685
     24 C          27.6110   22.0630   17.1130 C.ar    1  LIG1       -0.3940
     25 H          28.5620   22.4780   16.8030 H       1  LIG1        0.2656
     26 C          27.3640   21.2650   18.2490 C.ar    1  LIG1       -0.1660
     27 N          26.0780   20.8690   18.2790 N.ar    1  LIG1       -0.2789
     28 C          28.3720   20.8510   19.2870 C.3     1  LIG1        1.5005
     29 F          27.9300   21.0650   20.5620 F       1  LIG1       -0.4519
     30 F          29.5540   21.5270   19.1780 F       1  LIG1       -0.4568
     31 F          28.6840   19.5230   19.2070 F       1  LIG1       -0.4466
     32 S          19.4880   21.0400   16.8100 S.O2    1  LIG1        2.4226
     33 O          18.9330   22.2980   16.3430 O.2     1  LIG1       -0.9870
     34 O          18.9740   20.4070   18.0120 O.2     1  LIG1       -0.9815
     35 N          19.3220   19.9420   15.5560 N.3     1  LIG1       -1.3028
     36 H          18.8380   20.3630   14.7590 H       1  LIG1        0.4857
     37 H          18.8490   19.0910   15.8720 H       1  LIG1        0.4886
@<TRIPOS>BOND
     1     1     2   ar
     2     2     3    1
     3     2     4   ar
     4     4     5    1
     5     4     6   ar
     6     6     7   ar
     7     7     8    1
     8     7     9   ar
     9     9    10    1
    10     9     1   ar
    11     6    11    1
    12    11    12   ar
    13    12    13    1
    14    13    14   ar
    15    14    15    1
    16    14    16   ar
    17    16    17    1
    18    16    18   ar
    19    18    19   ar
    20    19    20    1
    21    19    21   ar
    22    21    22    1
    23    21    13   ar
    24    18    23    1
    25    12    24   ar
    26    24    25    1
    27    24    26   ar
    28    26    27   ar
    29    27    11   ar
    30    26    28    1
    31    28    29    1
    32    28    30    1
    33    28    31    1
    34     1    32    1
    35    32    33    2
    36    32    34    2
    37    32    35    1
    38    35    36    1
    39    35    37    1
