@<TRIPOS>MOLECULE
8_1g
 40 42 0 0 0
SMALL
USER_CHARGES
****
From 3DB ct
@<TRIPOS>ATOM
      1 C          21.2410   21.1810   16.9450 C.ar    1  LIG1       -0.6168
      2 C          21.9630   20.3220   17.7720 C.ar    1  LIG1        0.0563
      3 H          21.4600   19.5550   18.3580 H       1  LIG1        0.1896
      4 C          23.3540   20.4480   17.8530 C.ar    1  LIG1       -0.2306
      5 H          23.8890   19.7600   18.5080 H       1  LIG1        0.1917
      6 C          24.0420   21.4220   17.1010 C.ar    1  LIG1        0.4143
      7 C          23.2970   22.2790   16.2810 C.ar    1  LIG1       -0.3513
      8 H          23.7480   23.0820   15.7090 H       1  LIG1        0.1982
      9 C          21.9040   22.1550   16.1970 C.ar    1  LIG1        0.0947
     10 H          21.3460   22.8330   15.5530 H       1  LIG1        0.1792
     11 N          25.4700   21.5090   17.2240 N.ar    1  LIG1       -0.1249
     12 C          26.4250   22.1390   16.4220 C.ar    1  LIG1        0.3469
     13 C          26.2220   22.7570   15.1110 C.ar    1  LIG1       -0.2121
     14 C          26.4710   24.1270   14.8870 C.ar    1  LIG1        0.2268
     15 C          26.2870   24.6510   13.5970 C.ar    1  LIG1       -0.2405
     16 H          26.4730   25.7070   13.4000 H       1  LIG1        0.1778
     17 C          25.8630   23.8360   12.5470 C.ar    1  LIG1       -0.1075
     18 H          25.7240   24.2580   11.5540 H       1  LIG1        0.1596
     19 C          25.6250   22.4830   12.7690 C.ar    1  LIG1       -0.1669
     20 H          25.3000   21.8450   11.9500 H       1  LIG1        0.1618
     21 C          25.8080   21.9450   14.0430 C.ar    1  LIG1       -0.1114
     22 H          25.6260   20.8820   14.1960 H       1  LIG1        0.1558
     23 C          26.9320   25.0430   15.9900 C.3     1  LIG1       -0.3492
     24 H          27.9540   24.7910   16.2910 H       1  LIG1        0.1118
     25 H          26.2660   24.9710   16.8550 H       1  LIG1        0.0928
     26 H          26.9290   26.0900   15.6680 H       1  LIG1        0.1080
     27 C          27.6340   21.9840   17.0760 C.ar    1  LIG1       -0.4698
     28 H          28.5970   22.3480   16.7400 H       1  LIG1        0.2778
     29 C          27.3710   21.2200   18.2300 C.ar    1  LIG1       -0.1427
     30 N          26.0670   20.9000   18.2990 N.ar    1  LIG1       -0.2841
     31 C          28.3860   20.7680   19.2460 C.3     1  LIG1        1.5036
     32 F          27.8500   20.5760   20.4880 F       1  LIG1       -0.4535
     33 F          29.4010   21.6680   19.4090 F       1  LIG1       -0.4571
     34 F          28.9750   19.5870   18.8970 F       1  LIG1       -0.4506
     35 S          19.4830   21.0140   16.8050 S.O2    1  LIG1        2.4366
     36 O          18.9070   22.2890   16.4140 O.2     1  LIG1       -0.9939
     37 O          18.9790   20.3040   17.9670 O.2     1  LIG1       -0.9871
     38 N          19.3310   19.9860   15.4910 N.3     1  LIG1       -1.3065
     39 H          18.8330   20.4430   14.7210 H       1  LIG1        0.4850
     40 H          18.8770   19.1090   15.7580 H       1  LIG1        0.4883
@<TRIPOS>BOND
     1     1     2   ar
     2     2     3    1
     3     2     4   ar
     4     4     5    1
     5     4     6   ar
     6     6     7   ar
     7     7     8    1
     8     7     9   ar
     9     9    10    1
    10     9     1   ar
    11     6    11    1
    12    11    12   ar
    13    12    13    1
    14    13    14   ar
    15    14    15   ar
    16    15    16    1
    17    15    17   ar
    18    17    18    1
    19    17    19   ar
    20    19    20    1
    21    19    21   ar
    22    21    22    1
    23    21    13   ar
    24    14    23    1
    25    23    24    1
    26    23    25    1
    27    23    26    1
    28    12    27   ar
    29    27    28    1
    30    27    29   ar
    31    29    30   ar
    32    30    11   ar
    33    29    31    1
    34    31    32    1
    35    31    33    1
    36    31    34    1
    37     1    35    1
    38    35    36    2
    39    35    37    2
    40    35    38    1
    41    38    39    1
    42    38    40    1
