@<TRIPOS>MOLECULE
8_1i
 40 42 0 0 0
SMALL
USER_CHARGES
****
From 3DB ct
@<TRIPOS>ATOM
      1 C          21.2480   21.1860   16.9480 C.ar    1  LIG1       -0.6289
      2 C          21.9640   20.3210   17.7750 C.ar    1  LIG1        0.0657
      3 H          21.4570   19.5590   18.3620 H       1  LIG1        0.1867
      4 C          23.3570   20.4370   17.8550 C.ar    1  LIG1       -0.2155
      5 H          23.8910   19.7470   18.5080 H       1  LIG1        0.1873
      6 C          24.0460   21.4040   17.0990 C.ar    1  LIG1        0.3281
      7 C          23.3080   22.2730   16.2840 C.ar    1  LIG1       -0.3042
      8 H          23.7700   23.0790   15.7230 H       1  LIG1        0.1686
      9 C          21.9150   22.1590   16.2010 C.ar    1  LIG1        0.1081
     10 H          21.3580   22.8450   15.5640 H       1  LIG1        0.1768
     11 N          25.4720   21.4910   17.2170 N.ar    1  LIG1       -0.0111
     12 C          26.4160   22.1450   16.4220 C.ar    1  LIG1        0.1628
     13 C          26.2120   22.7300   15.0990 C.ar    1  LIG1       -0.0444
     14 C          26.4720   24.0880   14.8810 C.ar    1  LIG1       -0.0811
     15 H          26.8080   24.7250   15.6970 H       1  LIG1        0.1559
     16 C          26.2970   24.6480   13.6120 C.ar    1  LIG1       -0.2898
     17 H          26.5040   25.7070   13.4660 H       1  LIG1        0.1932
     18 C          25.8600   23.8580   12.5420 C.ar    1  LIG1        0.2549
     19 C          25.6310   22.4940   12.7530 C.ar    1  LIG1       -0.2986
     20 H          25.3160   21.8550   11.9290 H       1  LIG1        0.1990
     21 C          25.8060   21.9330   14.0210 C.ar    1  LIG1       -0.1194
     22 H          25.6250   20.8680   14.1560 H       1  LIG1        0.1655
     23 C          25.7040   24.4520   11.1720 C.3     1  LIG1       -0.3308
     24 H          24.9170   23.9370   10.6120 H       1  LIG1        0.0947
     25 H          26.6450   24.3690   10.6200 H       1  LIG1        0.1051
     26 H          25.4210   25.5080   11.2340 H       1  LIG1        0.0961
     27 C          27.6120   22.0580   17.1110 C.ar    1  LIG1       -0.4041
     28 H          28.5640   22.4710   16.8000 H       1  LIG1        0.2656
     29 C          27.3640   21.2620   18.2470 C.ar    1  LIG1       -0.1614
     30 N          26.0770   20.8700   18.2800 N.ar    1  LIG1       -0.2867
     31 C          28.3710   20.8430   19.2850 C.3     1  LIG1        1.4962
     32 F          29.5640   21.4980   19.1600 F       1  LIG1       -0.4563
     33 F          28.6600   19.5100   19.2200 F       1  LIG1       -0.4467
     34 F          27.9400   21.0810   20.5600 F       1  LIG1       -0.4522
     35 S          19.4880   21.0370   16.8100 S.O2    1  LIG1        2.4255
     36 O          18.9430   22.2520   16.2300 O.2     1  LIG1       -0.9899
     37 O          18.9590   20.5140   18.0580 O.2     1  LIG1       -0.9841
     38 N          19.3260   19.8330   15.6560 N.3     1  LIG1       -1.3028
     39 H          18.8480   20.1840   14.8220 H       1  LIG1        0.4845
     40 H          18.8500   19.0140   16.0420 H       1  LIG1        0.4879
@<TRIPOS>BOND
     1     1     2   ar
     2     2     3    1
     3     2     4   ar
     4     4     5    1
     5     4     6   ar
     6     6     7   ar
     7     7     8    1
     8     7     9   ar
     9     9    10    1
    10     9     1   ar
    11     6    11    1
    12    11    12   ar
    13    12    13    1
    14    13    14   ar
    15    14    15    1
    16    14    16   ar
    17    16    17    1
    18    16    18   ar
    19    18    19   ar
    20    19    20    1
    21    19    21   ar
    22    21    22    1
    23    21    13   ar
    24    18    23    1
    25    23    24    1
    26    23    25    1
    27    23    26    1
    28    12    27   ar
    29    27    28    1
    30    27    29   ar
    31    29    30   ar
    32    30    11   ar
    33    29    31    1
    34    31    32    1
    35    31    33    1
    36    31    34    1
    37     1    35    1
    38    35    36    2
    39    35    37    2
    40    35    38    1
    41    38    39    1
    42    38    40    1
