@<TRIPOS>MOLECULE
8_1l
 39 41 0 0 0
SMALL
USER_CHARGES
****
From 3DB ct
@<TRIPOS>ATOM
      1 C          21.2480   21.1860   16.9490 C.ar    1  LIG1       -0.6239
      2 C          21.9650   20.3210   17.7750 C.ar    1  LIG1        0.0830
      3 H          21.4570   19.5590   18.3620 H       1  LIG1        0.1858
      4 C          23.3570   20.4360   17.8560 C.ar    1  LIG1       -0.2249
      5 H          23.8910   19.7460   18.5080 H       1  LIG1        0.1927
      6 C          24.0470   21.4030   17.0990 C.ar    1  LIG1        0.3186
      7 C          23.3090   22.2730   16.2840 C.ar    1  LIG1       -0.3248
      8 H          23.7720   23.0800   15.7250 H       1  LIG1        0.1702
      9 C          21.9160   22.1600   16.2020 C.ar    1  LIG1        0.1170
     10 H          21.3590   22.8450   15.5650 H       1  LIG1        0.1788
     11 N          25.4720   21.4890   17.2160 N.ar    1  LIG1        0.0193
     12 C          26.4140   22.1450   16.4220 C.ar    1  LIG1        0.0694
     13 C          26.2110   22.7290   15.0980 C.ar    1  LIG1        0.0563
     14 C          26.4690   24.0900   14.8810 C.ar    1  LIG1       -0.0827
     15 H          26.7980   24.7270   15.7010 H       1  LIG1        0.1735
     16 C          26.2990   24.6530   13.6120 C.ar    1  LIG1       -0.2249
     17 H          26.5000   25.7130   13.4750 H       1  LIG1        0.2364
     18 C          25.8800   23.8460   12.5470 C.ar    1  LIG1        0.1340
     19 C          25.6340   22.4810   12.7470 C.ar    1  LIG1       -0.2248
     20 H          25.3150   21.8370   11.9310 H       1  LIG1        0.2374
     21 C          25.8060   21.9270   14.0200 C.ar    1  LIG1       -0.1183
     22 H          25.6220   20.8630   14.1600 H       1  LIG1        0.1804
     23 N          25.7010   24.4320   11.2120 N.pl3   1  LIG1        0.7468
     24 O          25.3510   23.6840   10.2800 O.2     1  LIG1       -0.5108
     25 O          25.9080   25.6520   11.0700 O.2     1  LIG1       -0.5092
     26 C          27.6090   22.0640   17.1130 C.ar    1  LIG1       -0.3629
     27 H          28.5610   22.4810   16.8040 H       1  LIG1        0.2637
     28 C          27.3630   21.2650   18.2480 C.ar    1  LIG1       -0.1601
     29 N          26.0780   20.8680   18.2780 N.ar    1  LIG1       -0.2752
     30 C          28.3700   20.8510   19.2870 C.3     1  LIG1        1.4928
     31 F          27.9480   21.1140   20.5600 F       1  LIG1       -0.4481
     32 F          29.5710   21.4880   19.1470 F       1  LIG1       -0.4545
     33 F          28.6430   19.5130   19.2440 F       1  LIG1       -0.4430
     34 S          19.4880   21.0380   16.8110 S.O2    1  LIG1        2.4148
     35 O          18.9310   22.2950   16.3420 O.2     1  LIG1       -0.9817
     36 O          18.9730   20.4070   18.0130 O.2     1  LIG1       -0.9773
     37 N          19.3230   19.9380   15.5590 N.3     1  LIG1       -1.3025
     38 H          18.8380   20.3580   14.7620 H       1  LIG1        0.4883
     39 H          18.8530   19.0860   15.8760 H       1  LIG1        0.4903
@<TRIPOS>BOND
     1     1     2   ar
     2     2     3    1
     3     2     4   ar
     4     4     5    1
     5     4     6   ar
     6     6     7   ar
     7     7     8    1
     8     7     9   ar
     9     9    10    1
    10     9     1   ar
    11     6    11    1
    12    11    12   ar
    13    12    13    1
    14    13    14   ar
    15    14    15    1
    16    14    16   ar
    17    16    17    1
    18    16    18   ar
    19    18    19   ar
    20    19    20    1
    21    19    21   ar
    22    21    22    1
    23    21    13   ar
    24    18    23    1
    25    23    24    2
    26    23    25    1
    27    12    26   ar
    28    26    27    1
    29    26    28   ar
    30    28    29   ar
    31    29    11   ar
    32    28    30    1
    33    30    31    1
    34    30    32    1
    35    30    33    1
    36     1    34    1
    37    34    35    2
    38    34    36    2
    39    34    37    1
    40    37    38    1
    41    37    39    1
