@<TRIPOS>MOLECULE
8_1n
 41 43 0 0 0
SMALL
USER_CHARGES
****
From 3DB ct
@<TRIPOS>ATOM
      1 C          21.2460   21.1820   16.9420 C.ar    1  LIG1       -0.6383
      2 C          21.9650   20.3230   17.7710 C.ar    1  LIG1        0.0599
      3 H          21.4610   19.5570   18.3560 H       1  LIG1        0.1882
      4 C          23.3570   20.4470   17.8550 C.ar    1  LIG1       -0.2233
      5 H          23.8910   19.7590   18.5100 H       1  LIG1        0.1880
      6 C          24.0460   21.4190   17.1020 C.ar    1  LIG1        0.4032
      7 C          23.3040   22.2790   16.2820 C.ar    1  LIG1       -0.3631
      8 H          23.7580   23.0840   15.7150 H       1  LIG1        0.1926
      9 C          21.9110   22.1570   16.1960 C.ar    1  LIG1        0.1285
     10 H          21.3530   22.8370   15.5540 H       1  LIG1        0.1703
     11 N          25.4720   21.5060   17.2240 N.ar    1  LIG1       -0.0958
     12 C          26.4240   22.1380   16.4230 C.ar    1  LIG1        0.2937
     13 C          26.2180   22.7510   15.1080 C.ar    1  LIG1       -0.2940
     14 C          26.4700   24.1220   14.8830 C.ar    1  LIG1        0.5215
     15 C          26.2790   24.6500   13.6020 C.ar    1  LIG1       -0.3683
     16 H          26.4530   25.7000   13.3790 H       1  LIG1        0.1809
     17 C          25.8500   23.8310   12.5530 C.ar    1  LIG1       -0.0330
     18 H          25.7040   24.2540   11.5600 H       1  LIG1        0.1601
     19 C          25.6110   22.4780   12.7720 C.ar    1  LIG1       -0.2736
     20 H          25.2810   21.8420   11.9520 H       1  LIG1        0.1766
     21 C          25.7990   21.9370   14.0430 C.ar    1  LIG1       -0.0197
     22 H          25.6150   20.8750   14.1970 H       1  LIG1        0.1628
     23 O          26.8770   24.8540   15.9720 O.3     1  LIG1       -0.4429
     24 C          27.1320   26.2410   15.7680 C.3     1  LIG1        0.0697
     25 H          27.4470   26.6650   16.7270 H       1  LIG1        0.1000
     26 H          26.2240   26.7670   15.4540 H       1  LIG1        0.0480
     27 H          27.9480   26.3900   15.0540 H       1  LIG1        0.0479
     28 C          27.6310   22.0030   17.0860 C.ar    1  LIG1       -0.4412
     29 H          28.5900   22.3830   16.7570 H       1  LIG1        0.2757
     30 C          27.3720   21.2300   18.2350 C.ar    1  LIG1       -0.1417
     31 N          26.0710   20.8900   18.2940 N.ar    1  LIG1       -0.2867
     32 C          28.3810   20.7870   19.2600 C.3     1  LIG1        1.4942
     33 F          27.9320   20.9390   20.5420 F       1  LIG1       -0.4543
     34 F          29.5530   21.4850   19.1860 F       1  LIG1       -0.4559
     35 F          28.7130   19.4690   19.1240 F       1  LIG1       -0.4493
     36 S          19.4880   21.0240   16.7990 S.O2    1  LIG1        2.4322
     37 O          18.9260   22.2760   16.3250 O.2     1  LIG1       -0.9930
     38 O          18.9710   20.3920   18.0000 O.2     1  LIG1       -0.9866
     39 N          19.3350   19.9200   15.5480 N.3     1  LIG1       -1.3055
     40 H          18.8490   20.3350   14.7480 H       1  LIG1        0.4838
     41 H          18.8690   19.0650   15.8640 H       1  LIG1        0.4883
@<TRIPOS>BOND
     1     1     2   ar
     2     2     3    1
     3     2     4   ar
     4     4     5    1
     5     4     6   ar
     6     6     7   ar
     7     7     8    1
     8     7     9   ar
     9     9    10    1
    10     9     1   ar
    11     6    11    1
    12    11    12   ar
    13    12    13    1
    14    13    14   ar
    15    14    15   ar
    16    15    16    1
    17    15    17   ar
    18    17    18    1
    19    17    19   ar
    20    19    20    1
    21    19    21   ar
    22    21    22    1
    23    21    13   ar
    24    14    23    1
    25    23    24    1
    26    24    25    1
    27    24    26    1
    28    24    27    1
    29    12    28   ar
    30    28    29    1
    31    28    30   ar
    32    30    31   ar
    33    31    11   ar
    34    30    32    1
    35    32    33    1
    36    32    34    1
    37    32    35    1
    38     1    36    1
    39    36    37    2
    40    36    38    2
    41    36    39    1
    42    39    40    1
    43    39    41    1
