@<TRIPOS>MOLECULE
8_1o
 41 43 0 0 0
SMALL
USER_CHARGES
****
From 3DB ct
@<TRIPOS>ATOM
      1 C          21.2500   21.1870   16.9470 C.ar    1  LIG1       -0.6242
      2 C          21.9650   20.3210   17.7740 C.ar    1  LIG1        0.0709
      3 H          21.4560   19.5580   18.3600 H       1  LIG1        0.1851
      4 C          23.3570   20.4360   17.8560 C.ar    1  LIG1       -0.2223
      5 H          23.8910   19.7450   18.5080 H       1  LIG1        0.1893
      6 C          24.0480   21.4020   17.0990 C.ar    1  LIG1        0.3297
      7 C          23.3110   22.2730   16.2840 C.ar    1  LIG1       -0.2957
      8 H          23.7750   23.0790   15.7250 H       1  LIG1        0.1695
      9 C          21.9180   22.1600   16.2000 C.ar    1  LIG1        0.0922
     10 H          21.3630   22.8460   15.5630 H       1  LIG1        0.1812
     11 N          25.4730   21.4880   17.2180 N.ar    1  LIG1       -0.0170
     12 C          26.4150   22.1450   16.4240 C.ar    1  LIG1        0.2003
     13 C          26.2110   22.7280   15.0990 C.ar    1  LIG1       -0.2041
     14 C          26.4680   24.0860   14.8780 C.ar    1  LIG1       -0.0085
     15 H          26.8000   24.7250   15.6950 H       1  LIG1        0.1614
     16 C          26.2930   24.6490   13.6070 C.ar    1  LIG1       -0.4041
     17 H          26.4980   25.7100   13.4910 H       1  LIG1        0.1856
     18 C          25.8690   23.8570   12.5410 C.ar    1  LIG1        0.5912
     19 C          25.6280   22.4980   12.7560 C.ar    1  LIG1       -0.4937
     20 H          25.3030   21.8650   11.9320 H       1  LIG1        0.2318
     21 C          25.8030   21.9330   14.0230 C.ar    1  LIG1        0.0589
     22 H          25.6170   20.8690   14.1560 H       1  LIG1        0.1476
     23 O          25.6590   24.2810   11.2580 O.3     1  LIG1       -0.4588
     24 C          25.8840   25.6650   10.9950 C.3     1  LIG1        0.0965
     25 H          25.6660   25.8420    9.9370 H       1  LIG1        0.0910
     26 H          26.9310   25.9330   11.1700 H       1  LIG1        0.0385
     27 H          25.2090   26.2940   11.5850 H       1  LIG1        0.0408
     28 C          27.6110   22.0630   17.1150 C.ar    1  LIG1       -0.4116
     29 H          28.5620   22.4790   16.8060 H       1  LIG1        0.2690
     30 C          27.3640   21.2640   18.2500 C.ar    1  LIG1       -0.1686
     31 N          26.0780   20.8660   18.2790 N.ar    1  LIG1       -0.2861
     32 C          28.3710   20.8500   19.2890 C.3     1  LIG1        1.5018
     33 F          27.9350   21.0810   20.5630 F       1  LIG1       -0.4526
     34 F          29.5590   21.5130   19.1700 F       1  LIG1       -0.4582
     35 F          28.6700   19.5180   19.2210 F       1  LIG1       -0.4479
     36 S          19.4900   21.0410   16.8090 S.O2    1  LIG1        2.4277
     37 O          18.9350   22.2990   16.3400 O.2     1  LIG1       -0.9911
     38 O          18.9730   20.4090   18.0090 O.2     1  LIG1       -0.9847
     39 N          19.3250   19.9410   15.5560 N.3     1  LIG1       -1.3044
     40 H          18.8390   20.3610   14.7590 H       1  LIG1        0.4852
     41 H          18.8570   19.0890   15.8720 H       1  LIG1        0.4883
@<TRIPOS>BOND
     1     1     2   ar
     2     2     3    1
     3     2     4   ar
     4     4     5    1
     5     4     6   ar
     6     6     7   ar
     7     7     8    1
     8     7     9   ar
     9     9    10    1
    10     9     1   ar
    11     6    11    1
    12    11    12   ar
    13    12    13    1
    14    13    14   ar
    15    14    15    1
    16    14    16   ar
    17    16    17    1
    18    16    18   ar
    19    18    19   ar
    20    19    20    1
    21    19    21   ar
    22    21    22    1
    23    21    13   ar
    24    18    23    1
    25    23    24    1
    26    24    25    1
    27    24    26    1
    28    24    27    1
    29    12    28   ar
    30    28    29    1
    31    28    30   ar
    32    30    31   ar
    33    31    11   ar
    34    30    32    1
    35    32    33    1
    36    32    34    1
    37    32    35    1
    38     1    36    1
    39    36    37    2
    40    36    38    2
    41    36    39    1
    42    39    40    1
    43    39    41    1
