@<TRIPOS>MOLECULE
8_1y
 47 49 0 0 0
SMALL
USER_CHARGES
****
From 3DB ct
@<TRIPOS>ATOM
      1 C          21.2490   21.1850   16.9490 C.ar    1  LIG1       -0.6341
      2 C          21.9650   20.3200   17.7750 C.ar    1  LIG1        0.0674
      3 H          21.4570   19.5570   18.3610 H       1  LIG1        0.1859
      4 C          23.3560   20.4350   17.8550 C.ar    1  LIG1       -0.2103
      5 H          23.8900   19.7440   18.5070 H       1  LIG1        0.1863
      6 C          24.0460   21.4010   17.0980 C.ar    1  LIG1        0.3082
      7 C          23.3090   22.2710   16.2820 C.ar    1  LIG1       -0.2674
      8 H          23.7730   23.0770   15.7220 H       1  LIG1        0.1425
      9 C          21.9150   22.1590   16.2010 C.ar    1  LIG1        0.0971
     10 H          21.3580   22.8450   15.5660 H       1  LIG1        0.1819
     11 N          25.4710   21.4880   17.2160 N.ar    1  LIG1       -0.0043
     12 C          26.4130   22.1460   16.4240 C.ar    1  LIG1        0.1804
     13 C          26.2110   22.7280   15.0990 C.ar    1  LIG1       -0.1767
     14 C          26.4690   24.0850   14.8760 C.ar    1  LIG1        0.0721
     15 H          26.8000   24.7120   15.7040 H       1  LIG1        0.1498
     16 C          26.3010   24.6560   13.6010 C.ar    1  LIG1       -0.3913
     17 C          25.8900   23.8440   12.5270 C.ar    1  LIG1        0.5248
     18 C          25.6480   22.4850   12.7480 C.ar    1  LIG1       -0.4291
     19 H          25.3350   21.8180   11.9490 H       1  LIG1        0.1992
     20 C          25.8110   21.9310   14.0230 C.ar    1  LIG1       -0.0398
     21 H          25.6250   20.8670   14.1610 H       1  LIG1        0.1691
     22 O          25.7630   24.4700   11.3160 O.3     1  LIG1       -0.3296
     23 C          25.3090   23.6840   10.2160 C.3     1  LIG1       -0.0653
     24 H          25.2390   24.3440    9.3460 H       1  LIG1        0.1190
     25 H          24.3110   23.2770   10.4060 H       1  LIG1        0.0738
     26 H          26.0260   22.8920    9.9760 H       1  LIG1        0.0800
     27 C          26.5930   26.1290   13.4160 C.3     1  LIG1        0.1722
     28 H          26.4430   26.6570   14.3660 H       1  LIG1        0.0074
     29 H          25.8720   26.5710   12.7180 H       1  LIG1       -0.0021
     30 C          28.0130   26.3710   12.9250 C.3     1  LIG1       -0.1668
     31 H          28.1950   27.4450   12.8120 H       1  LIG1        0.0405
     32 H          28.1900   25.8950   11.9560 H       1  LIG1        0.0453
     33 H          28.7490   25.9750   13.6330 H       1  LIG1        0.0434
     34 C          27.6080   22.0650   17.1170 C.ar    1  LIG1       -0.4058
     35 H          28.5590   22.4820   16.8090 H       1  LIG1        0.2661
     36 C          27.3610   21.2620   18.2490 C.ar    1  LIG1       -0.1664
     37 N          26.0760   20.8630   18.2760 N.ar    1  LIG1       -0.2875
     38 C          28.3680   20.8400   19.2840 C.3     1  LIG1        1.4986
     39 F          27.9040   20.9850   20.5610 F       1  LIG1       -0.4533
     40 F          29.5280   21.5600   19.2210 F       1  LIG1       -0.4568
     41 F          28.7270   19.5280   19.1540 F       1  LIG1       -0.4466
     42 S          19.4880   21.0400   16.8160 S.O2    1  LIG1        2.4294
     43 O          18.9320   22.2980   16.3490 O.2     1  LIG1       -0.9914
     44 O          18.9760   20.4080   18.0180 O.2     1  LIG1       -0.9842
     45 N          19.3200   19.9420   15.5620 N.3     1  LIG1       -1.3027
     46 H          18.8350   20.3630   14.7660 H       1  LIG1        0.4836
     47 H          18.8480   19.0910   15.8780 H       1  LIG1        0.4873
@<TRIPOS>BOND
     1     1     2   ar
     2     2     3    1
     3     2     4   ar
     4     4     5    1
     5     4     6   ar
     6     6     7   ar
     7     7     8    1
     8     7     9   ar
     9     9    10    1
    10     9     1   ar
    11     6    11    1
    12    11    12   ar
    13    12    13    1
    14    13    14   ar
    15    14    15    1
    16    14    16   ar
    17    16    17   ar
    18    17    18   ar
    19    18    19    1
    20    18    20   ar
    21    20    21    1
    22    20    13   ar
    23    17    22    1
    24    22    23    1
    25    23    24    1
    26    23    25    1
    27    23    26    1
    28    16    27    1
    29    27    28    1
    30    27    29    1
    31    27    30    1
    32    30    31    1
    33    30    32    1
    34    30    33    1
    35    12    34   ar
    36    34    35    1
    37    34    36   ar
    38    36    37   ar
    39    37    11   ar
    40    36    38    1
    41    38    39    1
    42    38    40    1
    43    38    41    1
    44     1    42    1
    45    42    43    2
    46    42    44    2
    47    42    45    1
    48    45    46    1
    49    45    47    1
