@<TRIPOS>MOLECULE
8_1z
 45 47 0 0 0
SMALL
USER_CHARGES
****
From 3DB ct
@<TRIPOS>ATOM
      1 C          21.2510   21.1880   16.9450 C.ar    1  LIG1       -0.6218
      2 C          21.9660   20.3230   17.7730 C.ar    1  LIG1        0.0610
      3 H          21.4560   19.5610   18.3590 H       1  LIG1        0.1879
      4 C          23.3580   20.4390   17.8570 C.ar    1  LIG1       -0.2155
      5 H          23.8910   19.7480   18.5100 H       1  LIG1        0.1880
      6 C          24.0490   21.4050   17.1010 C.ar    1  LIG1        0.3393
      7 C          23.3120   22.2760   16.2850 C.ar    1  LIG1       -0.2880
      8 H          23.7760   23.0830   15.7280 H       1  LIG1        0.1666
      9 C          21.9190   22.1620   16.1990 C.ar    1  LIG1        0.0852
     10 H          21.3640   22.8470   15.5610 H       1  LIG1        0.1848
     11 N          25.4740   21.4900   17.2180 N.ar    1  LIG1       -0.0567
     12 C          26.4160   22.1460   16.4230 C.ar    1  LIG1        0.2988
     13 C          26.2090   22.7310   15.1000 C.ar    1  LIG1       -0.2660
     14 C          26.4650   24.0920   14.8840 C.ar    1  LIG1       -0.1428
     15 H          26.8000   24.7270   15.7020 H       1  LIG1        0.1666
     16 C          26.2890   24.6430   13.6140 C.ar    1  LIG1        0.1545
     17 C          25.8170   23.8520   12.5630 C.ar    1  LIG1        0.3760
     18 C          25.6010   22.4890   12.7580 C.ar    1  LIG1       -0.3951
     19 H          25.2710   21.8610   11.9340 H       1  LIG1        0.2232
     20 C          25.7990   21.9300   14.0230 C.ar    1  LIG1        0.0067
     21 H          25.6240   20.8640   14.1610 H       1  LIG1        0.1546
     22 O          25.6140   24.3660   11.3090 O.3     1  LIG1       -0.3968
     23 C          25.8850   25.7720   11.3080 C.3     1  LIG1        0.0316
     24 H          25.6180   26.1610   10.3210 H       1  LIG1        0.0899
     25 H          26.9490   25.9700   11.4730 H       1  LIG1        0.0614
     26 H          25.2780   26.2950   12.0550 H       1  LIG1        0.0619
     27 O          26.5280   25.9830   13.4530 O.3     1  LIG1       -0.3336
     28 C          27.0030   26.5470   14.6810 C.3     1  LIG1       -0.0606
     29 H          27.0970   27.6280   14.5360 H       1  LIG1        0.1132
     30 H          27.9900   26.1540   14.9440 H       1  LIG1        0.0856
     31 H          26.2920   26.3750   15.4970 H       1  LIG1        0.0824
     32 C          27.6130   22.0620   17.1120 C.ar    1  LIG1       -0.4347
     33 H          28.5640   22.4770   16.8030 H       1  LIG1        0.2763
     34 C          27.3660   21.2610   18.2470 C.ar    1  LIG1       -0.1790
     35 N          26.0800   20.8660   18.2780 N.ar    1  LIG1       -0.2774
     36 C          28.3750   20.8420   19.2830 C.3     1  LIG1        1.5124
     37 F          27.9280   21.0360   20.5590 F       1  LIG1       -0.4548
     38 F          29.5520   21.5290   19.1850 F       1  LIG1       -0.4602
     39 F          28.6980   19.5180   19.1870 F       1  LIG1       -0.4488
     40 S          19.4910   21.0400   16.8040 S.O2    1  LIG1        2.4327
     41 O          18.9350   22.2960   16.3340 O.2     1  LIG1       -0.9924
     42 O          18.9730   20.4070   18.0040 O.2     1  LIG1       -0.9862
     43 N          19.3310   19.9390   15.5510 N.3     1  LIG1       -1.3027
     44 H          18.8470   20.3580   14.7520 H       1  LIG1        0.4847
     45 H          18.8600   19.0870   15.8670 H       1  LIG1        0.4876
@<TRIPOS>BOND
     1     1     2   ar
     2     2     3    1
     3     2     4   ar
     4     4     5    1
     5     4     6   ar
     6     6     7   ar
     7     7     8    1
     8     7     9   ar
     9     9    10    1
    10     9     1   ar
    11     6    11    1
    12    11    12   ar
    13    12    13    1
    14    13    14   ar
    15    14    15    1
    16    14    16   ar
    17    16    17   ar
    18    17    18   ar
    19    18    19    1
    20    18    20   ar
    21    20    21    1
    22    20    13   ar
    23    17    22    1
    24    22    23    1
    25    23    24    1
    26    23    25    1
    27    23    26    1
    28    16    27    1
    29    27    28    1
    30    28    29    1
    31    28    30    1
    32    28    31    1
    33    12    32   ar
    34    32    33    1
    35    32    34   ar
    36    34    35   ar
    37    35    11   ar
    38    34    36    1
    39    36    37    1
    40    36    38    1
    41    36    39    1
    42     1    40    1
    43    40    41    2
    44    40    42    2
    45    40    43    1
    46    43    44    1
    47    43    45    1
