@<TRIPOS>MOLECULE
8_20d
 35 37 0 0 0
SMALL
USER_CHARGES
****
From 3DB ct
@<TRIPOS>ATOM
      1 C          21.2530   21.1940   16.9290 C.ar    1  LIG1       -0.6388
      2 C          21.9660   20.3290   17.7600 C.ar    1  LIG1        0.0687
      3 H          21.4510   19.5690   18.3440 H       1  LIG1        0.1888
      4 C          23.3580   20.4450   17.8480 C.ar    1  LIG1       -0.2709
      5 H          23.8870   19.7550   18.5040 H       1  LIG1        0.2124
      6 C          24.0510   21.4130   17.0940 C.ar    1  LIG1        0.5596
      7 C          23.3160   22.2790   16.2740 C.ar    1  LIG1       -0.4900
      8 H          23.7770   23.0850   15.7150 H       1  LIG1        0.2428
      9 C          21.9220   22.1660   16.1860 C.ar    1  LIG1        0.1641
     10 H          21.3720   22.8530   15.5440 H       1  LIG1        0.1674
     11 N          25.4770   21.4980   17.2220 N.ar    1  LIG1       -0.3654
     12 C          26.4280   22.1460   16.4240 C.ar    1  LIG1        0.6753
     13 C          26.2090   22.7330   15.1030 C.ar    1  LIG1        0.0396
     14 C          26.4620   24.0940   14.8810 C.ar    1  LIG1       -0.3978
     15 H          26.8000   24.7350   15.6940 H       1  LIG1        0.2117
     16 C          26.2750   24.6490   13.6120 C.ar    1  LIG1        0.3527
     17 H          26.4700   25.7070   13.4560 H       1  LIG1        0.0636
     18 C          25.8430   23.8430   12.5600 C.ar    1  LIG1       -0.6514
     19 C          25.6000   22.4870   12.7650 C.ar    1  LIG1        0.3075
     20 H          25.2680   21.8540   11.9450 H       1  LIG1        0.0686
     21 C          25.7870   21.9310   14.0330 C.ar    1  LIG1       -0.3225
     22 H          25.6010   20.8670   14.1760 H       1  LIG1        0.1830
     23 CL         25.6140   24.5280   10.9980 Cl      1  LIG1        0.1331
     24 C          27.6280   22.0290   17.1060 C.ar    1  LIG1       -1.1217
     25 C          27.3500   21.2500   18.2350 C.ar    1  LIG1        0.9230
     26 N          26.0670   20.8780   18.2940 N.ar    1  LIG1       -0.4014
     27 C          28.2580   20.8110   19.2560 C.1     1  LIG1       -0.1767
     28 N          28.9910   20.4520   20.0870 N.1     1  LIG1       -0.1539
     29 CL         29.1550   22.6290   16.6510 Cl      1  LIG1        0.3000
     30 S          19.4930   21.0260   16.8110 S.O2    1  LIG1        2.4227
     31 O          18.9310   22.2870   16.3580 O.2     1  LIG1       -0.9859
     32 O          18.9860   20.3790   18.0080 O.2     1  LIG1       -0.9803
     33 N          19.3260   19.9250   15.5610 N.3     1  LIG1       -1.3041
     34 H          18.8260   20.3370   14.7690 H       1  LIG1        0.4859
     35 H          18.8710   19.0670   15.8830 H       1  LIG1        0.4903
@<TRIPOS>BOND
     1     1     2   ar
     2     2     3    1
     3     2     4   ar
     4     4     5    1
     5     4     6   ar
     6     6     7   ar
     7     7     8    1
     8     7     9   ar
     9     9    10    1
    10     9     1   ar
    11     6    11    1
    12    11    12   ar
    13    12    13    1
    14    13    14   ar
    15    14    15    1
    16    14    16   ar
    17    16    17    1
    18    16    18   ar
    19    18    19   ar
    20    19    20    1
    21    19    21   ar
    22    21    22    1
    23    21    13   ar
    24    18    23    1
    25    12    24   ar
    26    24    25   ar
    27    25    26   ar
    28    26    11   ar
    29    25    27    1
    30    27    28    3
    31    24    29    1
    32     1    30    1
    33    30    31    2
    34    30    32    2
    35    30    33    1
    36    33    34    1
    37    33    35    1
