@<TRIPOS>MOLECULE
8_20c
 38 40 0 0 0
SMALL
USER_CHARGES
****
From 3DB ct
@<TRIPOS>ATOM
      1 C          21.2520   21.1840   16.9390 C.ar    1  LIG1       -0.6187
      2 C          21.9690   20.3240   17.7680 C.ar    1  LIG1        0.0539
      3 H          21.4630   19.5590   18.3540 H       1  LIG1        0.1847
      4 C          23.3610   20.4460   17.8530 C.ar    1  LIG1       -0.2362
      5 H          23.8940   19.7580   18.5080 H       1  LIG1        0.2004
      6 C          24.0510   21.4160   17.0990 C.ar    1  LIG1        0.4417
      7 C          23.3110   22.2790   16.2800 C.ar    1  LIG1       -0.4285
      8 H          23.7670   23.0870   15.7180 H       1  LIG1        0.2272
      9 C          21.9180   22.1600   16.1930 C.ar    1  LIG1        0.1354
     10 H          21.3610   22.8410   15.5530 H       1  LIG1        0.1689
     11 N          25.4780   21.5030   17.2230 N.ar    1  LIG1       -0.1267
     12 C          26.4280   22.1420   16.4210 C.ar    1  LIG1        0.4550
     13 C          26.2090   22.7320   15.1020 C.ar    1  LIG1        0.0143
     14 C          26.4630   24.0930   14.8840 C.ar    1  LIG1       -0.3243
     15 H          26.8050   24.7300   15.6980 H       1  LIG1        0.2001
     16 C          26.2750   24.6520   13.6170 C.ar    1  LIG1        0.2995
     17 H          26.4710   25.7110   13.4640 H       1  LIG1        0.0735
     18 C          25.8400   23.8510   12.5630 C.ar    1  LIG1       -0.6421
     19 C          25.5960   22.4940   12.7640 C.ar    1  LIG1        0.2951
     20 H          25.2610   21.8640   11.9440 H       1  LIG1        0.0677
     21 C          25.7840   21.9330   14.0310 C.ar    1  LIG1       -0.2950
     22 H          25.5970   20.8700   14.1710 H       1  LIG1        0.1726
     23 CL         25.6090   24.5410   11.0040 Cl      1  LIG1        0.1288
     24 C          27.6300   22.0140   17.0960 C.ar    1  LIG1       -0.8822
     25 C          27.3600   21.2430   18.2420 C.ar    1  LIG1        0.5934
     26 N          26.0690   20.8930   18.3000 N.ar    1  LIG1       -0.4899
     27 C          28.3180   20.7900   19.2970 C.3     1  LIG1        0.1549
     28 H          29.3180   20.6560   18.8680 H       1  LIG1       -0.0060
     29 H          28.0050   19.8320   19.7230 H       1  LIG1        0.0489
     30 O          28.4190   21.7440   20.3620 O.3     1  LIG1       -0.6751
     31 H          29.0880   21.3670   20.9700 H       1  LIG1        0.4433
     32 CL         29.1570   22.6000   16.6240 Cl      1  LIG1        0.2535
     33 S          19.4930   21.0300   16.7950 S.O2    1  LIG1        2.4119
     34 O          18.9330   22.2850   16.3230 O.2     1  LIG1       -0.9862
     35 O          18.9760   20.3980   17.9960 O.2     1  LIG1       -0.9817
     36 N          19.3370   19.9280   15.5430 N.3     1  LIG1       -1.3088
     37 H          18.8510   20.3450   14.7450 H       1  LIG1        0.4869
     38 H          18.8700   19.0740   15.8590 H       1  LIG1        0.4901
@<TRIPOS>BOND
     1     1     2   ar
     2     2     3    1
     3     2     4   ar
     4     4     5    1
     5     4     6   ar
     6     6     7   ar
     7     7     8    1
     8     7     9   ar
     9     9    10    1
    10     9     1   ar
    11     6    11    1
    12    11    12   ar
    13    12    13    1
    14    13    14   ar
    15    14    15    1
    16    14    16   ar
    17    16    17    1
    18    16    18   ar
    19    18    19   ar
    20    19    20    1
    21    19    21   ar
    22    21    22    1
    23    21    13   ar
    24    18    23    1
    25    12    24   ar
    26    24    25   ar
    27    25    26   ar
    28    26    11   ar
    29    25    27    1
    30    27    28    1
    31    27    29    1
    32    27    30    1
    33    30    31    1
    34    24    32    1
    35     1    33    1
    36    33    34    2
    37    33    35    2
    38    33    36    1
    39    36    37    1
    40    36    38    1
