@<TRIPOS>MOLECULE
8_28a
 37 39 0 0 0
SMALL
USER_CHARGES
****
From 3DB ct
@<TRIPOS>ATOM
      1 C          25.7640   23.8100   12.6160 C.ar    1  LIG1        0.5494
      2 C          25.5190   22.4600   12.8230 C.ar    1  LIG1       -0.3252
      3 H          25.1720   21.8390   12.0020 H       1  LIG1        0.2231
      4 C          25.7240   21.9090   14.0910 C.ar    1  LIG1       -0.1490
      5 H          25.5310   20.8460   14.2260 H       1  LIG1        0.1785
      6 C          26.1880   22.7080   15.1550 C.ar    1  LIG1        0.0063
      7 C          26.4070   24.0740   14.9270 C.ar    1  LIG1       -0.0276
      8 H          26.7000   24.7570   15.7170 H       1  LIG1        0.1788
      9 C          26.2000   24.6210   13.6550 C.ar    1  LIG1       -0.3580
     10 H          26.3700   25.6800   13.4800 H       1  LIG1        0.2352
     11 N          26.3840   22.1060   16.4400 N.ar    1  LIG1        0.2019
     12 C          25.4920   21.4310   17.2760 C.ar    1  LIG1       -0.0927
     13 C          24.0360   21.3670   17.1590 C.ar    1  LIG1        0.2775
     14 C          23.3610   22.2390   16.2930 C.ar    1  LIG1       -0.2723
     15 H          23.9110   22.9850   15.7200 H       1  LIG1        0.1965
     16 C          21.9720   22.1690   16.1580 C.ar    1  LIG1        0.0530
     17 H          21.4610   22.8570   15.4880 H       1  LIG1        0.1805
     18 C          21.2520   21.2190   16.8890 C.ar    1  LIG1       -0.5679
     19 C          21.9140   20.3300   17.7390 C.ar    1  LIG1       -0.0103
     20 H          21.3640   19.5790   18.3020 H       1  LIG1        0.1920
     21 C          23.3040   20.4030   17.8680 C.ar    1  LIG1       -0.2034
     22 H          23.8100   19.6990   18.5280 H       1  LIG1        0.1804
     23 S          19.4940   21.1200   16.6890 S.O2    1  LIG1        2.4370
     24 O          19.0120   22.3220   16.0320 O.2     1  LIG1       -0.9865
     25 O          18.9020   20.6730   17.9370 O.2     1  LIG1       -0.9875
     26 N          19.3370   19.8690   15.5860 N.3     1  LIG1       -1.2954
     27 H          18.9030   20.1950   14.7190 H       1  LIG1        0.4820
     28 H          18.8200   19.0840   15.9890 H       1  LIG1        0.4848
     29 C          26.2620   20.8940   18.2910 C.ar    1  LIG1       -0.3179
     30 H          25.9070   20.2890   19.1170 H       1  LIG1        0.2538
     31 C          27.5770   21.3600   18.0860 C.ar    1  LIG1       -0.2095
     32 N          27.6380   22.1430   16.9930 N.ar    1  LIG1       -0.3046
     33 C          28.7700   21.0850   18.9620 C.3     1  LIG1        1.5264
     34 F          28.5370   20.1040   19.8830 F       1  LIG1       -0.4642
     35 F          29.1590   22.1870   19.6700 F       1  LIG1       -0.4496
     36 F          29.8640   20.6830   18.2490 F       1  LIG1       -0.4550
     37 F          25.5670   24.3400   11.4010 F       1  LIG1       -0.3606
@<TRIPOS>BOND
     1     1     2   ar
     2     2     3    1
     3     2     4   ar
     4     4     5    1
     5     4     6   ar
     6     6     7   ar
     7     7     8    1
     8     7     9   ar
     9     9    10    1
    10     9     1   ar
    11     6    11    1
    12    11    12   ar
    13    12    13    1
    14    13    14   ar
    15    14    15    1
    16    14    16   ar
    17    16    17    1
    18    16    18   ar
    19    18    19   ar
    20    19    20    1
    21    19    21   ar
    22    21    22    1
    23    21    13   ar
    24    18    23    1
    25    23    24    2
    26    23    25    2
    27    23    26    1
    28    26    27    1
    29    26    28    1
    30    12    29   ar
    31    29    30    1
    32    29    31   ar
    33    31    32   ar
    34    32    11   ar
    35    31    33    1
    36    33    34    1
    37    33    35    1
    38    33    36    1
    39     1    37    1
