@<TRIPOS>MOLECULE
8_2a
 37 39 0 0 0
SMALL
USER_CHARGES
****
From 3DB ct
@<TRIPOS>ATOM
      1 C          21.2470   21.1930   16.9440 C.ar    1  LIG1       -0.6611
      2 C          21.9630   20.3260   17.7710 C.ar    1  LIG1        0.1183
      3 H          21.4500   19.5660   18.3570 H       1  LIG1        0.1779
      4 C          23.3550   20.4390   17.8530 C.ar    1  LIG1       -0.2850
      5 H          23.8880   19.7480   18.5060 H       1  LIG1        0.1981
      6 C          24.0450   21.4050   17.0960 C.ar    1  LIG1        0.4279
      7 C          23.3090   22.2750   16.2800 C.ar    1  LIG1       -0.3776
      8 H          23.7740   23.0810   15.7210 H       1  LIG1        0.1888
      9 C          21.9150   22.1650   16.1970 C.ar    1  LIG1        0.1398
     10 H          21.3640   22.8520   15.5590 H       1  LIG1        0.1707
     11 N          25.4710   21.4890   17.2160 N.ar    1  LIG1       -0.1409
     12 C          26.4150   22.1450   16.4220 C.ar    1  LIG1        0.1590
     13 C          26.2130   22.7300   15.0980 C.ar    1  LIG1        0.2110
     14 C          26.4710   24.0900   14.8830 C.ar    1  LIG1       -0.3049
     15 H          26.8000   24.7270   15.7020 H       1  LIG1        0.1903
     16 C          26.3010   24.6500   13.6130 C.ar    1  LIG1        0.2267
     17 H          26.4980   25.7090   13.4630 H       1  LIG1        0.0831
     18 C          25.8830   23.8480   12.5530 C.ar    1  LIG1       -0.5775
     19 C          25.6380   22.4910   12.7500 C.ar    1  LIG1        0.2385
     20 H          25.3180   21.8600   11.9240 H       1  LIG1        0.0828
     21 C          25.8090   21.9310   14.0190 C.ar    1  LIG1       -0.3459
     22 H          25.6240   20.8670   14.1550 H       1  LIG1        0.2000
     23 CL         25.6730   24.5380   10.9890 Cl      1  LIG1        0.1220
     24 C          27.6100   22.0600   17.1140 C.ar    1  LIG1       -0.5197
     25 H          28.5620   22.4750   16.8040 H       1  LIG1        0.2740
     26 C          27.3580   21.2630   18.2460 C.ar    1  LIG1       -0.0441
     27 N          26.0750   20.8690   18.2790 N.ar    1  LIG1       -0.2051
     28 C          28.3520   20.8460   19.2910 C.3     1  LIG1        0.9805
     29 H          29.3440   21.2690   19.1090 H       1  LIG1        0.0102
     30 F          28.4710   19.4830   19.3480 F       1  LIG1       -0.4269
     31 F          27.9470   21.2260   20.5420 F       1  LIG1       -0.4335
     32 S          19.4870   21.0290   16.8210 S.O2    1  LIG1        2.4232
     33 O          18.9240   22.2860   16.3610 O.2     1  LIG1       -0.9876
     34 O          18.9770   20.3890   18.0210 O.2     1  LIG1       -0.9837
     35 N          19.3240   19.9240   15.5730 N.3     1  LIG1       -1.3019
     36 H          18.8270   20.3350   14.7780 H       1  LIG1        0.4846
     37 H          18.8670   19.0670   15.8960 H       1  LIG1        0.4880
@<TRIPOS>BOND
     1     1     2   ar
     2     2     3    1
     3     2     4   ar
     4     4     5    1
     5     4     6   ar
     6     6     7   ar
     7     7     8    1
     8     7     9   ar
     9     9    10    1
    10     9     1   ar
    11     6    11    1
    12    11    12   ar
    13    12    13    1
    14    13    14   ar
    15    14    15    1
    16    14    16   ar
    17    16    17    1
    18    16    18   ar
    19    18    19   ar
    20    19    20    1
    21    19    21   ar
    22    21    22    1
    23    21    13   ar
    24    18    23    1
    25    12    24   ar
    26    24    25    1
    27    24    26   ar
    28    26    27   ar
    29    27    11   ar
    30    26    28    1
    31    28    29    1
    32    28    30    1
    33    28    31    1
    34     1    32    1
    35    32    33    2
    36    32    34    2
    37    32    35    1
    38    35    36    1
    39    35    37    1
