@<TRIPOS>MOLECULE
8_2h
 41 43 0 0 0
SMALL
USER_CHARGES
****
From 3DB ct
@<TRIPOS>ATOM
      1 C          21.2480   21.1850   16.9490 C.ar    1  LIG1       -0.6175
      2 C          21.9650   20.3200   17.7760 C.ar    1  LIG1        0.0705
      3 H          21.4570   19.5580   18.3630 H       1  LIG1        0.1836
      4 C          23.3570   20.4360   17.8560 C.ar    1  LIG1       -0.2557
      5 H          23.8910   19.7460   18.5080 H       1  LIG1        0.2011
      6 C          24.0460   21.4030   17.0990 C.ar    1  LIG1        0.3771
      7 C          23.3080   22.2730   16.2840 C.ar    1  LIG1       -0.3248
      8 H          23.7710   23.0800   15.7260 H       1  LIG1        0.1843
      9 C          21.9150   22.1590   16.2020 C.ar    1  LIG1        0.0947
     10 H          21.3580   22.8440   15.5660 H       1  LIG1        0.1799
     11 N          25.4710   21.4890   17.2160 N.ar    1  LIG1       -0.0287
     12 C          26.4130   22.1470   16.4230 C.ar    1  LIG1        0.1952
     13 C          26.2110   22.7320   15.0990 C.ar    1  LIG1       -0.1967
     14 C          26.4680   24.0900   14.8810 C.ar    1  LIG1       -0.2654
     15 H          26.7950   24.7340   15.6930 H       1  LIG1        0.2430
     16 C          26.2990   24.6430   13.6100 C.ar    1  LIG1        0.3623
     17 C          25.8820   23.8590   12.5310 C.ar    1  LIG1        0.3216
     18 C          25.6420   22.5000   12.7480 C.ar    1  LIG1       -0.4142
     19 H          25.3240   21.8640   11.9240 H       1  LIG1        0.2351
     20 C          25.8100   21.9370   14.0190 C.ar    1  LIG1        0.0404
     21 H          25.6250   20.8720   14.1510 H       1  LIG1        0.1534
     22 O          25.6760   24.2660   11.2400 O.3     1  LIG1       -0.3810
     23 C          25.8900   25.6440   10.9490 C.3     1  LIG1        0.0410
     24 H          25.6730   25.7960    9.8870 H       1  LIG1        0.0899
     25 H          26.9350   25.9240   11.1170 H       1  LIG1        0.0725
     26 H          25.2060   26.2790   11.5210 H       1  LIG1        0.0735
     27 F          26.5530   25.9520   13.4680 F       1  LIG1       -0.3639
     28 C          27.6100   22.0620   17.1130 C.ar    1  LIG1       -0.4162
     29 H          28.5620   22.4760   16.8070 H       1  LIG1        0.3007
     30 C          27.3590   21.2610   18.2430 C.ar    1  LIG1       -0.0250
     31 N          26.0770   20.8670   18.2780 N.ar    1  LIG1       -0.3691
     32 C          28.3550   20.8420   19.2820 C.3     1  LIG1        0.9322
     33 H          27.9050   20.2340   20.0710 H       1  LIG1        0.0410
     34 F          28.9480   21.9310   19.8620 F       1  LIG1       -0.4282
     35 F          29.3810   20.1300   18.7200 F       1  LIG1       -0.4241
     36 S          19.4880   21.0390   16.8120 S.O2    1  LIG1        2.4240
     37 O          18.9320   22.2960   16.3430 O.2     1  LIG1       -0.9889
     38 O          18.9740   20.4070   18.0140 O.2     1  LIG1       -0.9856
     39 N          19.3210   19.9400   15.5590 N.3     1  LIG1       -1.3057
     40 H          18.8360   20.3610   14.7620 H       1  LIG1        0.4860
     41 H          18.8500   19.0880   15.8750 H       1  LIG1        0.4880
@<TRIPOS>BOND
     1     1     2   ar
     2     2     3    1
     3     2     4   ar
     4     4     5    1
     5     4     6   ar
     6     6     7   ar
     7     7     8    1
     8     7     9   ar
     9     9    10    1
    10     9     1   ar
    11     6    11    1
    12    11    12   ar
    13    12    13    1
    14    13    14   ar
    15    14    15    1
    16    14    16   ar
    17    16    17   ar
    18    17    18   ar
    19    18    19    1
    20    18    20   ar
    21    20    21    1
    22    20    13   ar
    23    17    22    1
    24    22    23    1
    25    23    24    1
    26    23    25    1
    27    23    26    1
    28    16    27    1
    29    12    28   ar
    30    28    29    1
    31    28    30   ar
    32    30    31   ar
    33    31    11   ar
    34    30    32    1
    35    32    33    1
    36    32    34    1
    37    32    35    1
    38     1    36    1
    39    36    37    2
    40    36    38    2
    41    36    39    1
    42    39    40    1
    43    39    41    1
