@<TRIPOS>MOLECULE
8_36
 40 42 0 0 0
SMALL
USER_CHARGES
****
From 3DB ct
@<TRIPOS>ATOM
      1 C          21.2010   21.1480   16.9450 C.ar    1  LIG1        0.5030
      2 C          21.9320   20.2980   17.7710 C.ar    1  LIG1       -0.3564
      3 H          21.4560   19.5250   18.3690 H       1  LIG1        0.1874
      4 C          23.3260   20.4210   17.8540 C.ar    1  LIG1       -0.0223
      5 H          23.8610   19.7330   18.5080 H       1  LIG1        0.1675
      6 C          24.0130   21.3880   17.1000 C.ar    1  LIG1       -0.0897
      7 C          23.2710   22.2510   16.2890 C.ar    1  LIG1        0.0024
      8 H          23.7240   23.0610   15.7280 H       1  LIG1        0.1424
      9 C          21.8780   22.1240   16.2110 C.ar    1  LIG1       -0.4218
     10 H          21.3190   22.8080   15.5740 H       1  LIG1        0.2196
     11 N          25.4380   21.4820   17.2200 N.ar    1  LIG1        0.1944
     12 C          26.3780   22.1420   16.4270 C.ar    1  LIG1        0.0345
     13 C          26.1740   22.7240   15.1030 C.ar    1  LIG1       -0.0877
     14 C          26.4300   24.0820   14.8810 C.ar    1  LIG1       -0.0627
     15 H          26.7590   24.7220   15.6990 H       1  LIG1        0.1716
     16 C          26.2590   24.6440   13.6100 C.ar    1  LIG1       -0.3807
     17 H          26.4650   25.7050   13.4930 H       1  LIG1        0.1810
     18 C          25.8410   23.8500   12.5420 C.ar    1  LIG1        0.5511
     19 C          25.6000   22.4910   12.7570 C.ar    1  LIG1       -0.4696
     20 H          25.2800   21.8560   11.9320 H       1  LIG1        0.2267
     21 C          25.7700   21.9270   14.0260 C.ar    1  LIG1        0.0176
     22 H          25.5850   20.8630   14.1600 H       1  LIG1        0.1579
     23 O          25.6370   24.2720   11.2580 O.3     1  LIG1       -0.4543
     24 C          25.8640   25.6560   10.9940 C.3     1  LIG1        0.1036
     25 H          25.6540   25.8320    9.9350 H       1  LIG1        0.0866
     26 H          26.9100   25.9250   11.1760 H       1  LIG1        0.0357
     27 H          25.1840   26.2850   11.5790 H       1  LIG1        0.0377
     28 C          27.5730   22.0660   17.1190 C.ar    1  LIG1       -0.3497
     29 H          28.5230   22.4860   16.8110 H       1  LIG1        0.2546
     30 C          27.3280   21.2680   18.2560 C.ar    1  LIG1       -0.2460
     31 N          26.0440   20.8660   18.2850 N.ar    1  LIG1       -0.2945
     32 C          28.3360   20.8600   19.2970 C.3     1  LIG1        1.5235
     33 F          29.5390   21.4890   19.1460 F       1  LIG1       -0.4656
     34 F          28.6010   19.5200   19.2680 F       1  LIG1       -0.4526
     35 F          27.9190   21.1410   20.5680 F       1  LIG1       -0.4563
     36 O          19.8450   21.1350   16.7750 O.3     1  LIG1       -0.4501
     37 C          19.1170   20.1470   17.5020 C.3     1  LIG1        0.0978
     38 H          18.0580   20.2650   17.2540 H       1  LIG1        0.0869
     39 H          19.2250   20.2950   18.5820 H       1  LIG1        0.0382
     40 H          19.4190   19.1370   17.2060 H       1  LIG1        0.0383
@<TRIPOS>BOND
     1     1     2   ar
     2     2     3    1
     3     2     4   ar
     4     4     5    1
     5     4     6   ar
     6     6     7   ar
     7     7     8    1
     8     7     9   ar
     9     9    10    1
    10     9     1   ar
    11     6    11    1
    12    11    12   ar
    13    12    13    1
    14    13    14   ar
    15    14    15    1
    16    14    16   ar
    17    16    17    1
    18    16    18   ar
    19    18    19   ar
    20    19    20    1
    21    19    21   ar
    22    21    22    1
    23    21    13   ar
    24    18    23    1
    25    23    24    1
    26    24    25    1
    27    24    26    1
    28    24    27    1
    29    12    28   ar
    30    28    29    1
    31    28    30   ar
    32    30    31   ar
    33    31    11   ar
    34    30    32    1
    35    32    33    1
    36    32    34    1
    37    32    35    1
    38     1    36    1
    39    36    37    1
    40    37    38    1
    41    37    39    1
    42    37    40    1
