@<TRIPOS>MOLECULE
8_celecoxib
 40 42 0 0 0
SMALL
USER_CHARGES
****
From 3DB ct
@<TRIPOS>ATOM
      1 C          21.2500   21.1690   16.9240 C.ar    1  LIG1       -0.6306
      2 C          21.9650   20.3140   17.7630 C.ar    1  LIG1        0.0696
      3 H          21.4550   19.5520   18.3500 H       1  LIG1        0.1857
      4 C          23.3560   20.4330   17.8490 C.ar    1  LIG1       -0.2195
      5 H          23.8890   19.7450   18.5050 H       1  LIG1        0.1888
      6 C          24.0460   21.4000   17.0930 C.ar    1  LIG1        0.3304
      7 C          23.3080   22.2690   16.2770 C.ar    1  LIG1       -0.3052
      8 H          23.7710   23.0770   15.7200 H       1  LIG1        0.1685
      9 C          21.9150   22.1530   16.1910 C.ar    1  LIG1        0.1084
     10 H          21.3610   22.8400   15.5530 H       1  LIG1        0.1770
     11 N          25.4710   21.4900   17.2150 N.ar    1  LIG1       -0.0099
     12 C          26.4150   22.1460   16.4230 C.ar    1  LIG1        0.1601
     13 C          26.2130   22.7310   15.0990 C.ar    1  LIG1       -0.0428
     14 C          26.4730   24.0890   14.8810 C.ar    1  LIG1       -0.0793
     15 H          26.8070   24.7260   15.6990 H       1  LIG1        0.1554
     16 C          26.3020   24.6480   13.6110 C.ar    1  LIG1       -0.2916
     17 H          26.5100   25.7080   13.4660 H       1  LIG1        0.1939
     18 C          25.8700   23.8580   12.5400 C.ar    1  LIG1        0.2553
     19 C          25.6400   22.4940   12.7510 C.ar    1  LIG1       -0.2966
     20 H          25.3280   21.8540   11.9260 H       1  LIG1        0.1983
     21 C          25.8110   21.9340   14.0200 C.ar    1  LIG1       -0.1208
     22 H          25.6300   20.8680   14.1550 H       1  LIG1        0.1657
     23 C          25.7180   24.4510   11.1700 C.3     1  LIG1       -0.3364
     24 H          24.9340   23.9360   10.6060 H       1  LIG1        0.0964
     25 H          26.6620   24.3690   10.6210 H       1  LIG1        0.1064
     26 H          25.4340   25.5070   11.2310 H       1  LIG1        0.0977
     27 C          27.6090   22.0640   17.1160 C.ar    1  LIG1       -0.4043
     28 H          28.5610   22.4800   16.8090 H       1  LIG1        0.2656
     29 C          27.3600   21.2670   18.2520 C.ar    1  LIG1       -0.1591
     30 N          26.0740   20.8720   18.2810 N.ar    1  LIG1       -0.2890
     31 C          28.3640   20.8550   19.2950 C.3     1  LIG1        1.4968
     32 F          29.5920   21.4240   19.1050 F       1  LIG1       -0.4568
     33 F          28.5710   19.5050   19.3140 F       1  LIG1       -0.4467
     34 F          27.9780   21.2020   20.5590 F       1  LIG1       -0.4527
     35 S          19.4840   21.0450   16.8340 S.O2    1  LIG1        2.4260
     36 O          18.9310   22.3250   16.4250 O.2     1  LIG1       -0.9899
     37 O          18.9880   20.3870   18.0310 O.2     1  LIG1       -0.9840
     38 N          19.2480   19.9800   15.5520 N.3     1  LIG1       -1.3031
     39 H          18.2510   19.8770   15.3340 H       1  LIG1        0.4843
     40 H          19.6040   19.0540   15.8140 H       1  LIG1        0.4881
@<TRIPOS>BOND
     1     1     2   ar
     2     2     3    1
     3     2     4   ar
     4     4     5    1
     5     4     6   ar
     6     6     7   ar
     7     7     8    1
     8     7     9   ar
     9     9    10    1
    10     9     1   ar
    11     6    11    1
    12    11    12   ar
    13    12    13    1
    14    13    14   ar
    15    14    15    1
    16    14    16   ar
    17    16    17    1
    18    16    18   ar
    19    18    19   ar
    20    19    20    1
    21    19    21   ar
    22    21    22    1
    23    21    13   ar
    24    18    23    1
    25    23    24    1
    26    23    25    1
    27    23    26    1
    28    12    27   ar
    29    27    28    1
    30    27    29   ar
    31    29    30   ar
    32    30    11   ar
    33    29    31    1
    34    31    32    1
    35    31    33    1
    36    31    34    1
    37     1    35    1
    38    35    36    2
    39    35    37    2
    40    35    38    1
    41    38    39    1
    42    38    40    1
