@<TRIPOS>MOLECULE
9_29
 45 48 0 0 0
SMALL
USER_CHARGES
****
From 3DB ct
@<TRIPOS>ATOM
      1 C          26.4530   22.0980   16.4030 C.2     1  LIG1        0.0002
      2 C          25.4790   21.4720   17.3140 C.2     1  LIG1       -0.1036
      3 C          26.1660   21.0020   18.3790 C.2     1  LIG1       -0.4227
      4 H          25.7290   20.5000   19.2340 H       1  LIG1        0.2478
      5 C          27.5970   21.2780   18.2550 C.3     1  LIG1        0.3748
      6 C          27.6740   21.9740   16.9700 C.2     1  LIG1       -0.4191
      7 H          28.6040   22.3220   16.5370 H       1  LIG1        0.2333
      8 C          28.6430   20.3220   18.7180 C.3     1  LIG1       -0.3178
      9 H          29.5350   20.1940   18.1160 H       1  LIG1        0.1523
     10 H          28.3330   19.4240   19.2390 H       1  LIG1        0.1549
     11 C          28.4500   21.6460   19.4210 C.3     1  LIG1       -0.3007
     12 H          28.0110   21.6330   20.4120 H       1  LIG1        0.1480
     13 H          29.2140   22.4030   19.2900 H       1  LIG1        0.1542
     14 C          24.0230   21.3750   17.1770 C.ar    1  LIG1        0.2936
     15 C          23.3340   22.2490   16.3230 C.ar    1  LIG1       -0.2535
     16 H          23.8720   23.0130   15.7640 H       1  LIG1        0.1881
     17 C          21.9470   22.1570   16.1790 C.ar    1  LIG1       -0.0311
     18 H          21.4330   22.8430   15.5090 H       1  LIG1        0.1896
     19 C          21.2410   21.1910   16.8990 C.ar    1  LIG1       -0.5008
     20 C          21.9110   20.3090   17.7490 C.ar    1  LIG1       -0.0461
     21 H          21.3700   19.5470   18.3070 H       1  LIG1        0.1845
     22 C          23.2990   20.4060   17.8880 C.ar    1  LIG1       -0.2714
     23 H          23.8130   19.7100   18.5510 H       1  LIG1        0.1891
     24 S          19.4790   21.0580   16.7000 S.O2    1  LIG1        2.1857
     25 O          18.9480   22.4000   16.4810 O.2     1  LIG1       -0.9724
     26 O          18.9580   20.2800   17.8200 O.2     1  LIG1       -0.9745
     27 C          19.2940   20.1160   15.2090 C.3     1  LIG1       -0.7334
     28 H          18.2260   19.9880   15.0200 H       1  LIG1        0.2361
     29 H          19.7670   19.1420   15.3430 H       1  LIG1        0.1922
     30 H          19.7550   20.6620   14.3830 H       1  LIG1        0.1902
     31 C          26.2170   22.7210   15.0980 C.ar    1  LIG1       -0.1030
     32 C          26.4660   24.0830   14.8980 C.ar    1  LIG1        0.3055
     33 H          26.8390   24.6950   15.7170 H       1  LIG1        0.0889
     34 C          26.2260   24.6690   13.6500 C.ar    1  LIG1       -0.8797
     35 C          25.7350   23.9090   12.5760 C.ar    1  LIG1        0.9617
     36 C          25.4890   22.5490   12.7790 C.ar    1  LIG1       -0.5646
     37 H          25.1090   21.9070   11.9890 H       1  LIG1        0.2193
     38 C          25.7290   21.9620   14.0280 C.ar    1  LIG1       -0.0309
     39 H          25.5300   20.8990   14.1550 H       1  LIG1        0.1705
     40 O          25.5290   24.5690   11.3910 O.3     1  LIG1       -0.5907
     41 C          25.0480   23.8010   10.2900 C.3     1  LIG1        0.1912
     42 H          24.9450   24.4750    9.4340 H       1  LIG1        0.0882
     43 H          24.0600   23.3810   10.5040 H       1  LIG1        0.0069
     44 H          25.7630   23.0190   10.0130 H       1  LIG1        0.0075
     45 CL         26.5490   26.3620   13.4760 Cl      1  LIG1        0.1615
@<TRIPOS>BOND
     1     1     2    1
     2     2     3    2
     3     3     4    1
     4     3     5    1
     5     5     6    1
     6     6     7    1
     7     6     1    2
     8     5     8    1
     9     8     9    1
    10     8    10    1
    11     8    11    1
    12    11    12    1
    13    11    13    1
    14    11     5    1
    15     2    14    1
    16    14    15   ar
    17    15    16    1
    18    15    17   ar
    19    17    18    1
    20    17    19   ar
    21    19    20   ar
    22    20    21    1
    23    20    22   ar
    24    22    23    1
    25    22    14   ar
    26    19    24    1
    27    24    25    2
    28    24    26    2
    29    24    27    1
    30    27    28    1
    31    27    29    1
    32    27    30    1
    33     1    31    1
    34    31    32   ar
    35    32    33    1
    36    32    34   ar
    37    34    35   ar
    38    35    36   ar
    39    36    37    1
    40    36    38   ar
    41    38    39    1
    42    38    31   ar
    43    35    40    1
    44    40    41    1
    45    41    42    1
    46    41    43    1
    47    41    44    1
    48    34    45    1
