@<TRIPOS>MOLECULE
9_3
 43 46 0 0 0
SMALL
USER_CHARGES
****
From 3DB ct
@<TRIPOS>ATOM
      1 C          26.3850   22.0830   16.4210 C.2     1  LIG1       -0.0516
      2 C          25.4940   21.5020   17.2540 C.2     1  LIG1       -0.1931
      3 C          26.1800   20.9250   18.4740 C.3     1  LIG1       -0.0389
      4 H          26.0540   19.8390   18.5220 H       1  LIG1        0.0663
      5 H          25.7770   21.3750   19.3890 H       1  LIG1        0.0696
      6 C          27.6420   21.2770   18.3000 C.3     1  LIG1        0.0057
      7 C          27.7860   22.0290   16.9940 C.3     1  LIG1       -0.0607
      8 H          28.1770   23.0350   17.1760 H       1  LIG1        0.0691
      9 H          28.4590   21.4990   16.3100 H       1  LIG1        0.0717
     10 C          28.7270   20.3330   18.7720 C.3     1  LIG1       -0.3137
     11 H          29.6270   20.2360   18.1740 H       1  LIG1        0.1478
     12 H          28.4360   19.4170   19.2740 H       1  LIG1        0.1478
     13 C          28.5030   21.6290   19.4940 C.3     1  LIG1       -0.3052
     14 H          28.0600   21.5860   20.4830 H       1  LIG1        0.1470
     15 H          29.2520   22.4050   19.3840 H       1  LIG1        0.1465
     16 C          24.0360   21.3880   17.1140 C.ar    1  LIG1        0.2975
     17 C          23.3260   22.2650   16.2790 C.ar    1  LIG1       -0.2623
     18 H          23.8480   23.0390   15.7190 H       1  LIG1        0.1782
     19 C          21.9360   22.1710   16.1560 C.ar    1  LIG1       -0.0131
     20 H          21.4100   22.8600   15.4990 H       1  LIG1        0.1876
     21 C          21.2440   21.2030   16.8850 C.ar    1  LIG1       -0.5368
     22 C          21.9310   20.3220   17.7210 C.ar    1  LIG1        0.0063
     23 H          21.4030   19.5580   18.2870 H       1  LIG1        0.1780
     24 C          23.3220   20.4220   17.8370 C.ar    1  LIG1       -0.3102
     25 H          23.8400   19.7220   18.4910 H       1  LIG1        0.1989
     26 S          19.4790   21.0680   16.7150 S.O2    1  LIG1        2.1954
     27 O          18.9410   22.4120   16.5220 O.2     1  LIG1       -0.9728
     28 O          18.9800   20.2760   17.8350 O.2     1  LIG1       -0.9746
     29 C          19.2690   20.1450   15.2160 C.3     1  LIG1       -0.7341
     30 H          18.1980   20.0230   15.0400 H       1  LIG1        0.2366
     31 H          19.7400   19.1680   15.3300 H       1  LIG1        0.1928
     32 H          19.7190   20.7000   14.3910 H       1  LIG1        0.1919
     33 C          26.1560   22.7060   15.1110 C.ar    1  LIG1        0.0376
     34 C          26.4150   24.0710   14.9150 C.ar    1  LIG1       -0.1418
     35 H          26.7620   24.6960   15.7350 H       1  LIG1        0.1878
     36 C          26.2130   24.6610   13.6640 C.ar    1  LIG1       -0.3693
     37 H          26.4070   25.7200   13.5170 H       1  LIG1        0.2246
     38 C          25.7590   23.8860   12.6050 C.ar    1  LIG1        0.5733
     39 C          25.5050   22.5310   12.7720 C.ar    1  LIG1       -0.4054
     40 H          25.1560   21.9360   11.9330 H       1  LIG1        0.2316
     41 C          25.7070   21.9420   14.0230 C.ar    1  LIG1       -0.0949
     42 H          25.5170   20.8750   14.1360 H       1  LIG1        0.1585
     43 F          25.5650   24.4520   11.4060 F       1  LIG1       -0.3695
@<TRIPOS>BOND
     1     1     2    2
     2     2     3    1
     3     3     4    1
     4     3     5    1
     5     3     6    1
     6     6     7    1
     7     7     8    1
     8     7     9    1
     9     7     1    1
    10     6    10    1
    11    10    11    1
    12    10    12    1
    13    10    13    1
    14    13    14    1
    15    13    15    1
    16    13     6    1
    17     2    16    1
    18    16    17   ar
    19    17    18    1
    20    17    19   ar
    21    19    20    1
    22    19    21   ar
    23    21    22   ar
    24    22    23    1
    25    22    24   ar
    26    24    25    1
    27    24    16   ar
    28    21    26    1
    29    26    27    2
    30    26    28    2
    31    26    29    1
    32    29    30    1
    33    29    31    1
    34    29    32    1
    35     1    33    1
    36    33    34   ar
    37    34    35    1
    38    34    36   ar
    39    36    37    1
    40    36    38   ar
    41    38    39   ar
    42    39    40    1
    43    39    41   ar
    44    41    42    1
    45    41    33   ar
    46    38    43    1
