@<TRIPOS>MOLECULE
9_36
 47 50 0 0 0
SMALL
USER_CHARGES
****
From 3DB ct
@<TRIPOS>ATOM
      1 C          26.3840   22.0820   16.4210 C.2     1  LIG1       -0.0211
      2 C          25.4930   21.5020   17.2540 C.2     1  LIG1       -0.2171
      3 C          26.1790   20.9250   18.4750 C.3     1  LIG1       -0.0342
      4 H          26.0530   19.8380   18.5230 H       1  LIG1        0.0635
      5 H          25.7760   21.3750   19.3890 H       1  LIG1        0.0674
      6 C          27.6410   21.2770   18.3010 C.3     1  LIG1       -0.0024
      7 C          27.7850   22.0280   16.9940 C.3     1  LIG1       -0.0483
      8 H          28.1770   23.0340   17.1750 H       1  LIG1        0.0691
      9 H          28.4580   21.4970   16.3110 H       1  LIG1        0.0673
     10 C          28.7260   20.3340   18.7750 C.3     1  LIG1       -0.3142
     11 H          29.6250   20.2360   18.1770 H       1  LIG1        0.1476
     12 H          28.4350   19.4180   19.2780 H       1  LIG1        0.1475
     13 C          28.5010   21.6310   19.4960 C.3     1  LIG1       -0.3072
     14 H          28.0570   21.5900   20.4840 H       1  LIG1        0.1473
     15 H          29.2490   22.4070   19.3850 H       1  LIG1        0.1448
     16 C          24.0350   21.3870   17.1150 C.ar    1  LIG1        0.3247
     17 C          23.3240   22.2650   16.2810 C.ar    1  LIG1       -0.2888
     18 H          23.8470   23.0380   15.7200 H       1  LIG1        0.1900
     19 C          21.9340   22.1700   16.1580 C.ar    1  LIG1        0.0013
     20 H          21.4080   22.8590   15.5010 H       1  LIG1        0.1842
     21 C          21.2430   21.2010   16.8870 C.ar    1  LIG1       -0.5437
     22 C          21.9310   20.3210   17.7230 C.ar    1  LIG1        0.0074
     23 H          21.4030   19.5570   18.2900 H       1  LIG1        0.1755
     24 C          23.3210   20.4220   17.8390 C.ar    1  LIG1       -0.3213
     25 H          23.8400   19.7220   18.4930 H       1  LIG1        0.1999
     26 S          19.4780   21.0680   16.7160 S.O2    1  LIG1        2.2022
     27 O          18.9400   22.4100   16.5200 O.2     1  LIG1       -0.9775
     28 O          18.9800   20.2770   17.8370 O.2     1  LIG1       -0.9787
     29 C          19.2690   20.1430   15.2170 C.3     1  LIG1       -0.7328
     30 H          18.1980   20.0220   15.0410 H       1  LIG1        0.2340
     31 H          19.7390   19.1650   15.3330 H       1  LIG1        0.1927
     32 H          19.7210   20.6980   14.3930 H       1  LIG1        0.1913
     33 C          26.1570   22.7050   15.1110 C.ar    1  LIG1       -0.0466
     34 C          26.4140   24.0670   14.9110 C.ar    1  LIG1       -0.1600
     35 H          26.7600   24.6930   15.7320 H       1  LIG1        0.1850
     36 C          26.2150   24.6630   13.6580 C.ar    1  LIG1       -0.3245
     37 H          26.4250   25.7250   13.5650 H       1  LIG1        0.1717
     38 C          25.7640   23.9010   12.5820 C.ar    1  LIG1        0.4862
     39 C          25.5140   22.5410   12.7710 C.ar    1  LIG1       -0.4414
     40 H          25.1660   21.9300   11.9410 H       1  LIG1        0.2171
     41 C          25.7120   21.9470   14.0220 C.ar    1  LIG1       -0.0065
     42 H          25.5200   20.8810   14.1300 H       1  LIG1        0.1365
     43 O          25.5320   24.3580   11.3140 O.3     1  LIG1       -0.4474
     44 C          25.7780   25.7430   11.0760 C.3     1  LIG1        0.1135
     45 H          25.5510   25.9450   10.0250 H       1  LIG1        0.0801
     46 H          26.8310   25.9890   11.2430 H       1  LIG1        0.0339
     47 H          25.1200   26.3690   11.6870 H       1  LIG1        0.0323
@<TRIPOS>BOND
     1     1     2    2
     2     2     3    1
     3     3     4    1
     4     3     5    1
     5     3     6    1
     6     6     7    1
     7     7     8    1
     8     7     9    1
     9     7     1    1
    10     6    10    1
    11    10    11    1
    12    10    12    1
    13    10    13    1
    14    13    14    1
    15    13    15    1
    16    13     6    1
    17     2    16    1
    18    16    17   ar
    19    17    18    1
    20    17    19   ar
    21    19    20    1
    22    19    21   ar
    23    21    22   ar
    24    22    23    1
    25    22    24   ar
    26    24    25    1
    27    24    16   ar
    28    21    26    1
    29    26    27    2
    30    26    28    2
    31    26    29    1
    32    29    30    1
    33    29    31    1
    34    29    32    1
    35     1    33    1
    36    33    34   ar
    37    34    35    1
    38    34    36   ar
    39    36    37    1
    40    36    38   ar
    41    38    39   ar
    42    39    40    1
    43    39    41   ar
    44    41    42    1
    45    41    33   ar
    46    38    43    1
    47    43    44    1
    48    44    45    1
    49    44    46    1
    50    44    47    1
