@<TRIPOS>MOLECULE
9_37
 46 49 0 0 0
SMALL
USER_CHARGES
****
From 3DB ct
@<TRIPOS>ATOM
      1 C          26.3850   22.0810   16.4200 C.2     1  LIG1        0.0283
      2 C          25.4930   21.5000   17.2540 C.2     1  LIG1       -0.2958
      3 C          26.1800   20.9260   18.4750 C.3     1  LIG1       -0.0526
      4 H          26.0580   19.8390   18.5230 H       1  LIG1        0.0717
      5 H          25.7750   21.3750   19.3890 H       1  LIG1        0.0647
      6 C          27.6420   21.2820   18.3020 C.3     1  LIG1        0.0314
      7 C          27.7850   22.0290   16.9930 C.3     1  LIG1       -0.0578
      8 H          28.1770   23.0360   17.1710 H       1  LIG1        0.0680
      9 H          28.4570   21.4960   16.3120 H       1  LIG1        0.0635
     10 C          28.7300   20.3450   18.7820 C.3     1  LIG1       -0.3225
     11 H          29.6310   20.2500   18.1860 H       1  LIG1        0.1484
     12 H          28.4410   19.4300   19.2860 H       1  LIG1        0.1467
     13 C          28.4970   21.6430   19.4970 C.3     1  LIG1       -0.3011
     14 H          28.0500   21.6040   20.4850 H       1  LIG1        0.1447
     15 H          29.2420   22.4230   19.3860 H       1  LIG1        0.1399
     16 C          24.0350   21.3860   17.1150 C.ar    1  LIG1        0.4521
     17 C          23.3240   22.2640   16.2820 C.ar    1  LIG1       -0.3612
     18 H          23.8460   23.0380   15.7220 H       1  LIG1        0.1964
     19 C          21.9340   22.1710   16.1610 C.ar    1  LIG1        0.0973
     20 H          21.4040   22.8600   15.5080 H       1  LIG1        0.1730
     21 C          21.2410   21.2010   16.8890 C.ar    1  LIG1       -0.6595
     22 C          21.9300   20.3220   17.7260 C.ar    1  LIG1        0.0852
     23 H          21.4000   19.5600   18.2930 H       1  LIG1        0.1744
     24 C          23.3210   20.4220   17.8410 C.ar    1  LIG1       -0.3707
     25 H          23.8390   19.7220   18.4950 H       1  LIG1        0.2018
     26 S          19.4830   21.0690   16.7090 S.O2    1  LIG1        2.4689
     27 O          18.9260   22.3780   16.4190 O.2     1  LIG1       -1.0038
     28 O          18.9550   20.2680   17.7990 O.2     1  LIG1       -1.0048
     29 N          19.3400   20.1610   15.3090 N.3     1  LIG1       -1.3086
     30 H          18.8630   20.6900   14.5740 H       1  LIG1        0.4814
     31 H          18.8720   19.2700   15.4920 H       1  LIG1        0.4825
     32 C          26.1560   22.7040   15.1110 C.ar    1  LIG1       -0.0823
     33 C          26.4130   24.0660   14.9110 C.ar    1  LIG1       -0.1388
     34 H          26.7610   24.6910   15.7330 H       1  LIG1        0.1768
     35 C          26.2130   24.6630   13.6590 C.ar    1  LIG1       -0.3354
     36 H          26.4230   25.7250   13.5660 H       1  LIG1        0.1712
     37 C          25.7590   23.9020   12.5830 C.ar    1  LIG1        0.4912
     38 C          25.5090   22.5420   12.7720 C.ar    1  LIG1       -0.4503
     39 H          25.1590   21.9310   11.9420 H       1  LIG1        0.2186
     40 C          25.7090   21.9470   14.0220 C.ar    1  LIG1        0.0202
     41 H          25.5170   20.8800   14.1300 H       1  LIG1        0.1319
     42 O          25.5240   24.3610   11.3170 O.3     1  LIG1       -0.4497
     43 C          25.7710   25.7460   11.0810 C.3     1  LIG1        0.1436
     44 H          25.5420   25.9510   10.0310 H       1  LIG1        0.0703
     45 H          26.8260   25.9910   11.2460 H       1  LIG1        0.0261
     46 H          25.1160   26.3730   11.6940 H       1  LIG1        0.0247
@<TRIPOS>BOND
     1     1     2    2
     2     2     3    1
     3     3     4    1
     4     3     5    1
     5     3     6    1
     6     6     7    1
     7     7     8    1
     8     7     9    1
     9     7     1    1
    10     6    10    1
    11    10    11    1
    12    10    12    1
    13    10    13    1
    14    13    14    1
    15    13    15    1
    16    13     6    1
    17     2    16    1
    18    16    17   ar
    19    17    18    1
    20    17    19   ar
    21    19    20    1
    22    19    21   ar
    23    21    22   ar
    24    22    23    1
    25    22    24   ar
    26    24    25    1
    27    24    16   ar
    28    21    26    1
    29    26    27    2
    30    26    28    2
    31    26    29    1
    32    29    30    1
    33    29    31    1
    34     1    32    1
    35    32    33   ar
    36    33    34    1
    37    33    35   ar
    38    35    36    1
    39    35    37   ar
    40    37    38   ar
    41    38    39    1
    42    38    40   ar
    43    40    41    1
    44    40    32   ar
    45    37    42    1
    46    42    43    1
    47    43    44    1
    48    43    45    1
    49    43    46    1
