@<TRIPOS>MOLECULE
9_41
 45 48 0 0 0
SMALL
USER_CHARGES
****
From 3DB ct
@<TRIPOS>ATOM
      1 C          26.3850   22.0820   16.4200 C.2     1  LIG1       -0.1517
      2 C          25.4930   21.5020   17.2530 C.2     1  LIG1       -0.1580
      3 C          26.1790   20.9260   18.4750 C.3     1  LIG1       -0.0772
      4 H          26.0540   19.8390   18.5220 H       1  LIG1        0.0762
      5 H          25.7740   21.3760   19.3880 H       1  LIG1        0.0684
      6 C          27.6410   21.2790   18.3010 C.3     1  LIG1        0.0596
      7 C          27.7850   22.0290   16.9940 C.3     1  LIG1       -0.0736
      8 H          28.1780   23.0360   17.1740 H       1  LIG1        0.0770
      9 H          28.4580   21.4980   16.3110 H       1  LIG1        0.0677
     10 C          28.7260   20.3360   18.7750 C.3     1  LIG1       -0.3173
     11 H          29.6260   20.2390   18.1780 H       1  LIG1        0.1493
     12 H          28.4340   19.4200   19.2770 H       1  LIG1        0.1461
     13 C          28.5000   21.6310   19.4970 C.3     1  LIG1       -0.3076
     14 H          28.0560   21.5880   20.4850 H       1  LIG1        0.1480
     15 H          29.2480   22.4080   19.3870 H       1  LIG1        0.1432
     16 C          24.0350   21.3870   17.1130 C.ar    1  LIG1        0.3534
     17 C          23.3240   22.2640   16.2800 C.ar    1  LIG1       -0.3250
     18 H          23.8450   23.0390   15.7200 H       1  LIG1        0.1817
     19 C          21.9340   22.1690   16.1600 C.ar    1  LIG1        0.0763
     20 H          21.4020   22.8590   15.5070 H       1  LIG1        0.1800
     21 C          21.2410   21.2000   16.8880 C.ar    1  LIG1       -0.6220
     22 C          21.9310   20.3200   17.7240 C.ar    1  LIG1        0.0592
     23 H          21.4030   19.5570   18.2920 H       1  LIG1        0.1797
     24 C          23.3220   20.4200   17.8380 C.ar    1  LIG1       -0.3199
     25 H          23.8410   19.7200   18.4910 H       1  LIG1        0.1929
     26 S          19.4840   21.0720   16.7110 S.O2    1  LIG1        2.4528
     27 O          18.9280   22.3830   16.4240 O.2     1  LIG1       -0.9961
     28 O          18.9560   20.2710   17.8020 O.2     1  LIG1       -0.9985
     29 N          19.3340   20.1660   15.3100 N.3     1  LIG1       -1.3123
     30 H          18.8560   20.6970   14.5770 H       1  LIG1        0.4853
     31 H          18.8610   19.2770   15.4940 H       1  LIG1        0.4874
     32 C          26.1570   22.7050   15.1110 C.ar    1  LIG1        0.3038
     33 C          26.4140   24.0670   14.9140 C.ar    1  LIG1       -0.3098
     34 H          26.7590   24.6940   15.7350 H       1  LIG1        0.1925
     35 C          26.2120   24.6600   13.6620 C.ar    1  LIG1        0.0468
     36 H          26.4090   25.7250   13.5420 H       1  LIG1        0.1551
     37 C          25.7620   23.8990   12.5740 C.ar    1  LIG1       -0.5099
     38 C          25.5060   22.5350   12.7710 C.ar    1  LIG1        0.0084
     39 H          25.1490   21.9190   11.9460 H       1  LIG1        0.1644
     40 C          25.7080   21.9450   14.0230 C.ar    1  LIG1       -0.2586
     41 H          25.5150   20.8790   14.1360 H       1  LIG1        0.1662
     42 C          25.5220   24.5420   11.2320 C.3     1  LIG1        1.5164
     43 F          24.2500   25.0260   11.0970 F       1  LIG1       -0.4673
     44 F          25.7030   23.6910   10.1760 F       1  LIG1       -0.4662
     45 F          26.3450   25.6060   10.9790 F       1  LIG1       -0.4666
@<TRIPOS>BOND
     1     1     2    2
     2     2     3    1
     3     3     4    1
     4     3     5    1
     5     3     6    1
     6     6     7    1
     7     7     8    1
     8     7     9    1
     9     7     1    1
    10     6    10    1
    11    10    11    1
    12    10    12    1
    13    10    13    1
    14    13    14    1
    15    13    15    1
    16    13     6    1
    17     2    16    1
    18    16    17   ar
    19    17    18    1
    20    17    19   ar
    21    19    20    1
    22    19    21   ar
    23    21    22   ar
    24    22    23    1
    25    22    24   ar
    26    24    25    1
    27    24    16   ar
    28    21    26    1
    29    26    27    2
    30    26    28    2
    31    26    29    1
    32    29    30    1
    33    29    31    1
    34     1    32    1
    35    32    33   ar
    36    33    34    1
    37    33    35   ar
    38    35    36    1
    39    35    37   ar
    40    37    38   ar
    41    38    39    1
    42    38    40   ar
    43    40    41    1
    44    40    32   ar
    45    37    42    1
    46    42    43    1
    47    42    44    1
    48    42    45    1
