@<TRIPOS>MOLECULE
13_10
 50 52 0 0 0
SMALL
USER_CHARGES
****
From 3DB ct
@<TRIPOS>ATOM
      1 N          10.1020    2.5980   12.8690 N.ar    1  LIG1       -0.6651
      2 C          10.7100    1.9550   11.8800 C.ar    1  LIG1        0.8103
      3 N          11.9830    2.1400   11.5450 N.ar    1  LIG1       -0.6555
      4 C          12.6970    3.0280   12.2460 C.ar    1  LIG1        0.3346
      5 C          12.1860    3.7760   13.3130 C.ar    1  LIG1       -0.1921
      6 C          10.8240    3.4910   13.5710 C.ar    1  LIG1        0.6161
      7 N          10.1080    4.1050   14.5950 N.pl3   1  LIG1       -0.7713
      8 H          10.4750    3.8990   15.5230 H       1  LIG1        0.3535
      9 H          10.0560    5.1180   14.4980 H       1  LIG1        0.3545
     10 C          13.0700    4.7020   13.9800 C.ar    1  LIG1       -0.3271
     11 C          14.4230    4.8500   13.5980 C.ar    1  LIG1        0.3241
     12 C          14.8700    4.0900   12.5150 C.ar    1  LIG1       -0.1986
     13 H          15.8950    4.1720   12.1560 H       1  LIG1        0.1309
     14 C          14.0170    3.1970   11.8670 C.ar    1  LIG1       -0.1321
     15 H          14.4090    2.6170   11.0320 H       1  LIG1        0.1298
     16 C          15.3420    5.8430   14.2990 C.3     1  LIG1       -0.2953
     17 H          15.8480    5.3790   15.1530 H       1  LIG1        0.0932
     18 H          14.7080    6.6330   14.7210 H       1  LIG1        0.1141
     19 N          16.3660    6.4450   13.4200 N.pl3   1  LIG1       -0.0307
     20 C          16.0410    7.1950   12.2930 C.ar    1  LIG1        0.2006
     21 C          16.9800    7.4590   11.2710 C.ar    1  LIG1       -0.3954
     22 H          17.9850    7.0640   11.3700 H       1  LIG1        0.1429
     23 C          16.6630    8.2000   10.1190 C.ar    1  LIG1        0.3027
     24 C          15.3640    8.6960    9.9720 C.ar    1  LIG1       -0.1865
     25 C          14.4260    8.4880   10.9800 C.ar    1  LIG1        0.4268
     26 C          14.7520    7.7280   12.1070 C.ar    1  LIG1       -0.4227
     27 H          13.9710    7.5700   12.8460 H       1  LIG1        0.1449
     28 O          13.1490    8.9720   10.8390 O.3     1  LIG1       -0.3120
     29 C          13.0600    9.7840    9.6630 C.3     1  LIG1        0.0955
     30 H          12.0100   10.0590    9.5260 H       1  LIG1        0.0339
     31 H          13.3860    9.2320    8.7740 H       1  LIG1        0.0298
     32 H          13.6410   10.7050    9.7770 H       1  LIG1        0.0373
     33 O          15.0310    9.4520    8.8750 O.3     1  LIG1       -0.2299
     34 C          16.1800    9.6250    8.0380 C.3     1  LIG1        0.0122
     35 H          15.8790   10.2380    7.1830 H       1  LIG1        0.0359
     36 H          16.5420    8.6650    7.6570 H       1  LIG1        0.0541
     37 H          16.9820   10.1520    8.5680 H       1  LIG1        0.0478
     38 O          17.5350    8.4860    9.1000 O.3     1  LIG1       -0.2458
     39 C          18.8420    7.9200    9.1770 C.3     1  LIG1        0.0050
     40 H          19.3920    8.2310    8.2830 H       1  LIG1        0.0641
     41 H          18.7990    6.8260    9.1760 H       1  LIG1        0.0449
     42 H          19.3840    8.2970   10.0500 H       1  LIG1        0.0434
     43 C          17.7590    6.0950   13.7170 C.3     1  LIG1       -0.0755
     44 H          18.1430    5.3830   12.9800 H       1  LIG1        0.0392
     45 H          17.8550    5.6310   14.7060 H       1  LIG1        0.0729
     46 H          18.3940    6.9880   13.7320 H       1  LIG1        0.0435
     47 CL         12.4770    5.6950   15.2870 Cl      1  LIG1        0.0706
     48 N           9.9900    1.0500   11.1640 N.pl3   1  LIG1       -0.8281
     49 H          10.4280    0.5490   10.4060 H       1  LIG1        0.3813
     50 H           9.0200    0.8900   11.3920 H       1  LIG1        0.3734
@<TRIPOS>BOND
     1     1     2   ar
     2     2     3   ar
     3     3     4   ar
     4     4     5   ar
     5     5     6   ar
     6     6     1   ar
     7     6     7    1
     8     7     8    1
     9     7     9    1
    10     5    10   ar
    11    10    11   ar
    12    11    12   ar
    13    12    13    1
    14    12    14   ar
    15    14    15    1
    16    14     4   ar
    17    11    16    1
    18    16    17    1
    19    16    18    1
    20    16    19    1
    21    19    20    1
    22    20    21   ar
    23    21    22    1
    24    21    23   ar
    25    23    24   ar
    26    24    25   ar
    27    25    26   ar
    28    26    27    1
    29    26    20   ar
    30    25    28    1
    31    28    29    1
    32    29    30    1
    33    29    31    1
    34    29    32    1
    35    24    33    1
    36    33    34    1
    37    34    35    1
    38    34    36    1
    39    34    37    1
    40    23    38    1
    41    38    39    1
    42    39    40    1
    43    39    41    1
    44    39    42    1
    45    19    43    1
    46    43    44    1
    47    43    45    1
    48    43    46    1
    49    10    47    1
    50     2    48    1
    51    48    49    1
    52    48    50    1
