@<TRIPOS>MOLECULE
14_10
 37 39 0 0 0
SMALL
USER_CHARGES
****
From 3DB ct
@<TRIPOS>ATOM
      1 N          10.1510    2.6420   12.9140 N.ar    1  LIG1       -0.6635
      2 C          10.7090    1.9650   11.9120 C.ar    1  LIG1        0.7970
      3 N          11.9750    2.1110   11.5190 N.ar    1  LIG1       -0.6385
      4 C          12.7310    3.0020   12.1850 C.ar    1  LIG1        0.2592
      5 C          12.2720    3.7730   13.2540 C.ar    1  LIG1       -0.1296
      6 C          10.9350    3.5190   13.5740 C.ar    1  LIG1        0.6263
      7 N          10.3050    4.2350   14.5860 N.pl3   1  LIG1       -0.7493
      8 H          10.8860    4.5600   15.3540 H       1  LIG1        0.3550
      9 H           9.3490    3.9770   14.8030 H       1  LIG1        0.3541
     10 N          13.0580    4.6710   13.9250 N.ar    1  LIG1       -0.3648
     11 C          14.3510    4.8240   13.5380 C.ar    1  LIG1        0.3136
     12 C          14.8770    4.0950   12.4830 C.ar    1  LIG1       -0.2724
     13 H          15.9100    4.2210   12.1710 H       1  LIG1        0.1523
     14 C          14.0530    3.1870   11.8140 C.ar    1  LIG1       -0.0558
     15 H          14.4630    2.6130   10.9860 H       1  LIG1        0.1238
     16 C          15.2060    5.8210   14.3070 C.3     1  LIG1       -0.1070
     17 H          15.5910    5.3480   15.2160 H       1  LIG1        0.0992
     18 H          14.5520    6.6220   14.6770 H       1  LIG1        0.0880
     19 N          16.2550    6.4350   13.4640 N.pl3   1  LIG1       -0.2942
     20 C          15.9970    7.1730   12.3180 C.ar    1  LIG1        0.2242
     21 C          14.7280    7.7300   12.0690 C.ar    1  LIG1       -0.1985
     22 H          13.9080    7.5970   12.7740 H       1  LIG1        0.1077
     23 C          14.4440    8.4860   10.9220 C.ar    1  LIG1        0.1220
     24 H          13.4430    8.8930   10.7900 H       1  LIG1        0.0661
     25 C          15.4320    8.7110    9.9720 C.ar    1  LIG1       -0.2838
     26 C          16.7000    8.1730   10.1770 C.ar    1  LIG1       -0.1420
     27 C          16.9690    7.4160   11.3310 C.ar    1  LIG1       -0.0494
     28 H          17.9720    7.0110   11.4240 H       1  LIG1        0.0567
     29 CL         17.9890    8.3990    9.0430 Cl      1  LIG1        0.0575
     30 CL         15.0280    9.6520    8.5800 Cl      1  LIG1        0.0585
     31 C          17.6350    6.1670   13.8900 C.3     1  LIG1       -0.0004
     32 H          18.1800    7.1030   14.0560 H       1  LIG1        0.0475
     33 H          18.1600    5.5610   13.1450 H       1  LIG1        0.0470
     34 H          17.6680    5.6090   14.8330 H       1  LIG1        0.0579
     35 N           9.9410    1.0620   11.2470 N.pl3   1  LIG1       -0.8200
     36 H          10.3380    0.5250   10.4910 H       1  LIG1        0.3804
     37 H           8.9830    0.9150   11.5300 H       1  LIG1        0.3755
@<TRIPOS>BOND
     1     1     2   ar
     2     2     3   ar
     3     3     4   ar
     4     4     5   ar
     5     5     6   ar
     6     6     1   ar
     7     6     7    1
     8     7     8    1
     9     7     9    1
    10     5    10   ar
    11    10    11   ar
    12    11    12   ar
    13    12    13    1
    14    12    14   ar
    15    14    15    1
    16    14     4   ar
    17    11    16    1
    18    16    17    1
    19    16    18    1
    20    16    19    1
    21    19    20    1
    22    20    21   ar
    23    21    22    1
    24    21    23   ar
    25    23    24    1
    26    23    25   ar
    27    25    26   ar
    28    26    27   ar
    29    27    28    1
    30    27    20   ar
    31    26    29    1
    32    25    30    1
    33    19    31    1
    34    31    32    1
    35    31    33    1
    36    31    34    1
    37     2    35    1
    38    35    36    1
    39    35    37    1
