@<TRIPOS>MOLECULE
15_15
 44 47 0 0 0
SMALL
USER_CHARGES
****
From 3DB ct
@<TRIPOS>ATOM
      1 N          10.1510    2.7150   12.8330 N.ar    1  LIG1       -0.6709
      2 C          10.7460    2.0330   11.8560 C.ar    1  LIG1        0.7925
      3 N          12.0340    2.1470   11.5310 N.ar    1  LIG1       -0.6708
      4 C          12.7770    3.0160   12.2280 C.ar    1  LIG1        0.4511
      5 C          12.2650    3.7830   13.2720 C.ar    1  LIG1       -0.4496
      6 C          10.9090    3.5650   13.5440 C.ar    1  LIG1        0.6862
      7 N          10.2350    4.2650   14.5310 N.pl3   1  LIG1       -0.7626
      8 H          10.7120    4.4380   15.4090 H       1  LIG1        0.3347
      9 H           9.2520    4.0250   14.6280 H       1  LIG1        0.3261
     10 C          13.1110    4.7040   13.9570 C.ar    1  LIG1       -0.0867
     11 H          12.6630    5.3160   14.7370 H       1  LIG1        0.0963
     12 C          14.4630    4.8740   13.6320 C.ar    1  LIG1        0.1564
     13 C          14.9420    4.0790   12.5840 C.ar    1  LIG1       -0.1184
     14 H          15.9850    4.1300   12.2750 H       1  LIG1        0.1156
     15 C          14.1140    3.1740   11.9030 C.ar    1  LIG1       -0.2047
     16 H          14.5400    2.5810   11.0950 H       1  LIG1        0.1355
     17 N          15.2840    5.7740   14.2960 N.pl3   1  LIG1       -0.3215
     18 C          16.3460    6.5190   13.5950 C.3     1  LIG1        0.0246
     19 H          17.1620    5.8640   13.2660 H       1  LIG1        0.0616
     20 H          16.7950    7.2300   14.3000 H       1  LIG1        0.0723
     21 C          15.8510    7.2480   12.3500 C.ar    1  LIG1       -0.0274
     22 C          16.6680    7.4460   11.1990 C.ar    1  LIG1       -0.0301
     23 C          16.1250    8.1430   10.0880 C.ar    1  LIG1        0.1497
     24 C          14.8080    8.6210   10.1350 C.ar    1  LIG1       -0.1996
     25 H          14.3830    9.1560    9.2860 H       1  LIG1        0.1305
     26 C          14.0170    8.4270   11.2640 C.ar    1  LIG1       -0.1053
     27 H          12.9970    8.8060   11.2860 H       1  LIG1        0.1115
     28 C          14.5340    7.7500   12.3620 C.ar    1  LIG1       -0.0906
     29 H          13.8980    7.6070   13.2360 H       1  LIG1        0.1184
     30 C          16.9050    8.3570    8.9390 C.ar    1  LIG1       -0.2000
     31 H          16.4920    8.8920    8.0830 H       1  LIG1        0.1241
     32 C          18.2170    7.8950    8.8650 C.ar    1  LIG1       -0.0708
     33 H          18.8080    8.0690    7.9680 H       1  LIG1        0.1008
     34 C          18.7660    7.2110    9.9410 C.ar    1  LIG1       -0.1159
     35 H          19.7900    6.8450    9.8900 H       1  LIG1        0.1089
     36 C          18.0030    6.9910   11.0900 C.ar    1  LIG1       -0.1100
     37 H          18.4730    6.4480   11.9080 H       1  LIG1        0.0973
     38 C          15.1950    5.8860   15.7540 C.3     1  LIG1       -0.0213
     39 H          16.1300    6.2500   16.1910 H       1  LIG1        0.0640
     40 H          15.0070    4.9110   16.2200 H       1  LIG1        0.0374
     41 H          14.3920    6.5760   16.0350 H       1  LIG1        0.0452
     42 N           9.9890    1.1600   11.1380 N.pl3   1  LIG1       -0.8379
     43 H          10.4090    0.6330   10.3870 H       1  LIG1        0.3808
     44 H           9.0090    1.0530   11.3530 H       1  LIG1        0.3726
@<TRIPOS>BOND
     1     1     2   ar
     2     2     3   ar
     3     3     4   ar
     4     4     5   ar
     5     5     6   ar
     6     6     1   ar
     7     6     7    1
     8     7     8    1
     9     7     9    1
    10     5    10   ar
    11    10    11    1
    12    10    12   ar
    13    12    13   ar
    14    13    14    1
    15    13    15   ar
    16    15    16    1
    17    15     4   ar
    18    12    17    1
    19    17    18    1
    20    18    19    1
    21    18    20    1
    22    18    21    1
    23    21    22   ar
    24    22    23   ar
    25    23    24   ar
    26    24    25    1
    27    24    26   ar
    28    26    27    1
    29    26    28   ar
    30    28    29    1
    31    28    21   ar
    32    23    30   ar
    33    30    31    1
    34    30    32   ar
    35    32    33    1
    36    32    34   ar
    37    34    35    1
    38    34    36   ar
    39    36    37    1
    40    36    22   ar
    41    17    38    1
    42    38    39    1
    43    38    40    1
    44    38    41    1
    45     2    42    1
    46    42    43    1
    47    42    44    1
