@<TRIPOS>MOLECULE
19_19
 45 48 0 0 0
SMALL
USER_CHARGES
****
From 3DB ct
@<TRIPOS>ATOM
      1 C          12.2000    3.8600   13.2730 C.ar    1  LIG1       -0.5877
      2 C          10.8450    3.4660   13.6300 C.ar    1  LIG1        0.7565
      3 N          10.1440    2.5940   12.8960 N.ar    1  LIG1       -0.7116
      4 C          10.6980    1.9790   11.8240 C.ar    1  LIG1        0.8160
      5 N          12.0400    2.1470   11.5440 N.ar    1  LIG1       -0.6700
      6 C          12.7710    3.0540   12.3160 C.ar    1  LIG1        0.4402
      7 C          14.2620    3.0500   12.0220 C.3     1  LIG1       -0.0388
      8 H          14.5770    2.0210   11.7850 H       1  LIG1        0.0480
      9 H          14.4710    3.6520   11.1200 H       1  LIG1        0.0328
     10 C          15.0210    3.6230   13.2260 C.3     1  LIG1       -0.0994
     11 H          16.0900    3.7360   12.9740 H       1  LIG1        0.0152
     12 H          14.9700    2.9340   14.0880 H       1  LIG1        0.0431
     13 C          14.3780    4.9850   13.5720 C.3     1  LIG1        0.2523
     14 H          14.1740    5.4270   12.5810 H       1  LIG1        0.0155
     15 C          12.9590    4.8530   14.1790 C.3     1  LIG1       -0.0701
     16 H          13.0260    4.4130   15.1920 H       1  LIG1        0.0582
     17 H          12.5200    5.6950   14.2030 H       1  LIG1        0.0308
     18 C          15.3640    5.9040   14.3000 C.3     1  LIG1       -0.2277
     19 H          14.8670    6.7660   14.7780 H       1  LIG1        0.1007
     20 H          15.8530    5.3580   15.1230 H       1  LIG1        0.0962
     21 N          16.3870    6.4120   13.4140 N.pl3   1  LIG1       -0.3931
     22 H          17.2160    5.8470   13.3480 H       1  LIG1        0.2813
     23 C          16.0360    7.0980   12.2490 C.ar    1  LIG1        0.1618
     24 C          14.7390    7.6590   12.0820 C.ar    1  LIG1       -0.2076
     25 H          13.9350    7.5460   12.8290 H       1  LIG1        0.1065
     26 C          14.4550    8.4760   10.9900 C.ar    1  LIG1       -0.0374
     27 H          13.4470    8.9260   10.8810 H       1  LIG1        0.1039
     28 C          15.4170    8.7250   10.0190 C.ar    1  LIG1       -0.2876
     29 H          15.2080    9.2760    9.2740 H       1  LIG1        0.1322
     30 C          16.6720    8.2010   10.0950 C.ar    1  LIG1        0.2016
     31 C          17.0030    7.4330   11.2800 C.ar    1  LIG1       -0.0739
     32 C          18.3470    6.9680   11.3440 C.ar    1  LIG1       -0.1105
     33 H          18.6780    6.3700   12.2170 H       1  LIG1        0.0968
     34 C          19.2760    7.2150   10.3580 C.ar    1  LIG1       -0.1374
     35 H          20.3060    6.8220   10.4630 H       1  LIG1        0.1066
     36 C          18.9270    7.9710    9.2010 C.ar    1  LIG1       -0.0512
     37 H          19.6830    8.1640    8.4180 H       1  LIG1        0.0971
     38 C          17.6510    8.4550    9.0870 C.ar    1  LIG1       -0.2260
     39 H          17.3590    9.0610    8.2060 H       1  LIG1        0.1270
     40 N          10.0000    1.2030   11.0730 N.pl3   1  LIG1       -0.8271
     41 H           9.1310    1.0630   11.2570 H       1  LIG1        0.3755
     42 H          10.3810    0.8010   10.3640 H       1  LIG1        0.3775
     43 N          10.1820    3.9600   14.7110 N.pl3   1  LIG1       -0.7966
     44 H          10.5820    4.5620   15.2480 H       1  LIG1        0.3454
     45 H           9.3440    3.6840   14.8900 H       1  LIG1        0.3349
@<TRIPOS>BOND
     1     1     2   ar
     2     2     3   ar
     3     3     4   ar
     4     4     5   ar
     5     5     6   ar
     6     6     1   ar
     7     6     7    1
     8     7     8    1
     9     7     9    1
    10     7    10    1
    11    10    11    1
    12    10    12    1
    13    10    13    1
    14    13    14    1
    15    13    15    1
    16    15    16    1
    17    15    17    1
    18    15     1    1
    19    13    18    1
    20    18    19    1
    21    18    20    1
    22    18    21    1
    23    21    22    1
    24    21    23    1
    25    23    24   ar
    26    24    25    1
    27    24    26   ar
    28    26    27    1
    29    26    28   ar
    30    28    29    1
    31    28    30   ar
    32    30    31   ar
    33    31    23   ar
    34    31    32   ar
    35    32    33    1
    36    32    34   ar
    37    34    35    1
    38    34    36   ar
    39    36    37    1
    40    36    38   ar
    41    38    39    1
    42    38    30   ar
    43     4    40    1
    44    40    41    1
    45    40    42    1
    46     2    43    1
    47    43    44    1
    48    43    45    1
