@<TRIPOS>MOLECULE
19_20
 48 51 0 0 0
SMALL
USER_CHARGES
****
From 3DB ct
@<TRIPOS>ATOM
      1 C          12.2000    3.8600   13.2730 C.ar    1  LIG1       -0.6060
      2 C          10.8450    3.4660   13.6300 C.ar    1  LIG1        0.7522
      3 N          10.1440    2.5940   12.8960 N.ar    1  LIG1       -0.7083
      4 C          10.6980    1.9790   11.8240 C.ar    1  LIG1        0.8177
      5 N          12.0400    2.1470   11.5440 N.ar    1  LIG1       -0.6727
      6 C          12.7710    3.0540   12.3160 C.ar    1  LIG1        0.4392
      7 C          14.2620    3.0500   12.0220 C.3     1  LIG1       -0.0243
      8 H          14.5770    2.0210   11.7850 H       1  LIG1        0.0425
      9 H          14.4710    3.6520   11.1200 H       1  LIG1        0.0303
     10 C          15.0210    3.6230   13.2260 C.3     1  LIG1       -0.0690
     11 H          16.0900    3.7360   12.9740 H       1  LIG1        0.0082
     12 H          14.9700    2.9340   14.0880 H       1  LIG1        0.0455
     13 C          14.3780    4.9850   13.5720 C.3     1  LIG1        0.0608
     14 H          14.1740    5.4270   12.5810 H       1  LIG1        0.0518
     15 C          12.9590    4.8530   14.1790 C.3     1  LIG1        0.0920
     16 H          13.0260    4.4130   15.1920 H       1  LIG1        0.0275
     17 H          12.5200    5.6950   14.2030 H       1  LIG1       -0.0053
     18 C          15.3640    5.9040   14.3000 C.3     1  LIG1       -0.2143
     19 H          14.8670    6.7660   14.7780 H       1  LIG1        0.0718
     20 H          15.8530    5.3580   15.1230 H       1  LIG1        0.1119
     21 N          16.3870    6.4120   13.4140 N.pl3   1  LIG1       -0.2201
     22 C          16.0360    7.0980   12.2490 C.ar    1  LIG1        0.1588
     23 C          14.7390    7.6590   12.0820 C.ar    1  LIG1       -0.1827
     24 H          13.9350    7.5460   12.8290 H       1  LIG1        0.1205
     25 C          14.4550    8.4760   10.9900 C.ar    1  LIG1       -0.0747
     26 H          13.4470    8.9260   10.8810 H       1  LIG1        0.1067
     27 C          15.4170    8.7250   10.0190 C.ar    1  LIG1       -0.2374
     28 H          15.2080    9.2760    9.2740 H       1  LIG1        0.1326
     29 C          16.6720    8.2010   10.0950 C.ar    1  LIG1        0.2016
     30 C          17.0030    7.4330   11.2800 C.ar    1  LIG1       -0.1070
     31 C          18.3470    6.9680   11.3440 C.ar    1  LIG1       -0.0064
     32 H          18.6780    6.3700   12.2170 H       1  LIG1        0.0835
     33 C          19.2760    7.2150   10.3580 C.ar    1  LIG1       -0.1815
     34 H          20.3060    6.8220   10.4630 H       1  LIG1        0.1166
     35 C          18.9270    7.9710    9.2010 C.ar    1  LIG1       -0.0296
     36 H          19.6830    8.1640    8.4180 H       1  LIG1        0.0950
     37 C          17.6510    8.4550    9.0870 C.ar    1  LIG1       -0.2485
     38 H          17.3590    9.0610    8.2060 H       1  LIG1        0.1296
     39 C          17.5010    5.6540   13.3250 C.3     1  LIG1       -0.0238
     40 H          17.5840    5.0250   14.2120 H       1  LIG1        0.0247
     41 H          17.4430    5.0250   12.4370 H       1  LIG1        0.0468
     42 H          18.3750    6.3010   13.2560 H       1  LIG1        0.0434
     43 N          10.0000    1.2030   11.0730 N.pl3   1  LIG1       -0.8307
     44 H           9.1310    1.0630   11.2570 H       1  LIG1        0.3751
     45 H          10.3810    0.8010   10.3640 H       1  LIG1        0.3791
     46 N          10.1820    3.9600   14.7110 N.pl3   1  LIG1       -0.8129
     47 H          10.5820    4.5620   15.2480 H       1  LIG1        0.3497
     48 H           9.3440    3.6840   14.8900 H       1  LIG1        0.3397
@<TRIPOS>BOND
     1     1     2   ar
     2     2     3   ar
     3     3     4   ar
     4     4     5   ar
     5     5     6   ar
     6     6     1   ar
     7     6     7    1
     8     7     8    1
     9     7     9    1
    10     7    10    1
    11    10    11    1
    12    10    12    1
    13    10    13    1
    14    13    14    1
    15    13    15    1
    16    15    16    1
    17    15    17    1
    18    15     1    1
    19    13    18    1
    20    18    19    1
    21    18    20    1
    22    18    21    1
    23    21    22    1
    24    22    23   ar
    25    23    24    1
    26    23    25   ar
    27    25    26    1
    28    25    27   ar
    29    27    28    1
    30    27    29   ar
    31    29    30   ar
    32    30    22   ar
    33    30    31   ar
    34    31    32    1
    35    31    33   ar
    36    33    34    1
    37    33    35   ar
    38    35    36    1
    39    35    37   ar
    40    37    38    1
    41    37    29   ar
    42    21    39    1
    43    39    40    1
    44    39    41    1
    45    39    42    1
    46     4    43    1
    47    43    44    1
    48    43    45    1
    49     2    46    1
    50    46    47    1
    51    46    48    1
