@<TRIPOS>MOLECULE
19_5
 50 52 0 0 0
SMALL
USER_CHARGES
****
From 3DB ct
@<TRIPOS>ATOM
      1 C          12.2000    3.8600   13.2730 C.ar    1  LIG1       -0.6226
      2 C          10.8450    3.4660   13.6300 C.ar    1  LIG1        0.7635
      3 N          10.1440    2.5940   12.8960 N.ar    1  LIG1       -0.7120
      4 C          10.6980    1.9790   11.8240 C.ar    1  LIG1        0.8137
      5 N          12.0400    2.1470   11.5440 N.ar    1  LIG1       -0.6682
      6 C          12.7710    3.0540   12.3160 C.ar    1  LIG1        0.4613
      7 C          14.2620    3.0500   12.0220 C.3     1  LIG1       -0.0918
      8 H          14.5770    2.0210   11.7850 H       1  LIG1        0.0589
      9 H          14.4710    3.6520   11.1200 H       1  LIG1        0.0448
     10 C          15.0210    3.6230   13.2260 C.3     1  LIG1       -0.0615
     11 H          16.0900    3.7360   12.9740 H       1  LIG1        0.0139
     12 H          14.9700    2.9340   14.0880 H       1  LIG1        0.0488
     13 C          14.3780    4.9850   13.5720 C.3     1  LIG1        0.1474
     14 H          14.1740    5.4270   12.5810 H       1  LIG1        0.0415
     15 C          12.9590    4.8530   14.1790 C.3     1  LIG1        0.0390
     16 H          13.0260    4.4130   15.1920 H       1  LIG1        0.0355
     17 H          12.5200    5.6950   14.2030 H       1  LIG1        0.0143
     18 C          15.3640    5.9040   14.3000 C.3     1  LIG1       -0.2816
     19 H          14.8670    6.7660   14.7780 H       1  LIG1        0.1024
     20 H          15.8530    5.3580   15.1230 H       1  LIG1        0.1244
     21 N          16.3870    6.4120   13.4140 N.pl3   1  LIG1       -0.1548
     22 C          16.0360    7.0980   12.2490 C.ar    1  LIG1        0.2069
     23 C          14.7390    7.6590   12.0820 C.ar    1  LIG1       -0.4186
     24 H          13.9350    7.5460   12.8290 H       1  LIG1        0.1609
     25 C          14.4550    8.4760   10.9900 C.ar    1  LIG1        0.3797
     26 C          15.4170    8.7250   10.0190 C.ar    1  LIG1       -0.2824
     27 H          15.2080    9.2760    9.2740 H       1  LIG1        0.1299
     28 C          16.6720    8.2010   10.0950 C.ar    1  LIG1       -0.1382
     29 H          17.2900    8.3450    9.3890 H       1  LIG1        0.1389
     30 C          17.0030    7.4330   11.2800 C.ar    1  LIG1        0.0632
     31 O          18.2370    7.0520   11.4350 O.3     1  LIG1       -0.2435
     32 C          19.2280    7.3800   10.4700 C.3     1  LIG1       -0.0344
     33 H          18.7870    7.9670    9.6630 H       1  LIG1        0.0478
     34 H          20.0180    7.9600   10.9470 H       1  LIG1        0.0536
     35 H          19.6510    6.4630   10.0590 H       1  LIG1        0.0642
     36 O          13.1540    8.9830   10.8180 O.3     1  LIG1       -0.2980
     37 C          12.8360    9.8200    9.7100 C.3     1  LIG1        0.0267
     38 H          13.7120   10.3640    9.3280 H       1  LIG1        0.0346
     39 H          12.4090    9.2210    8.8890 H       1  LIG1        0.0351
     40 H          12.0860   10.5490   10.0500 H       1  LIG1        0.0641
     41 C          17.6890    6.2200   13.7180 C.3     1  LIG1       -0.1340
     42 H          17.7650    5.6600   14.6500 H       1  LIG1        0.0675
     43 H          18.1710    5.6600   12.9170 H       1  LIG1        0.0725
     44 H          18.1800    7.1860   13.8330 H       1  LIG1        0.0847
     45 N          10.0000    1.2030   11.0730 N.pl3   1  LIG1       -0.8295
     46 H           9.1310    1.0630   11.2570 H       1  LIG1        0.3755
     47 H          10.3810    0.8010   10.3640 H       1  LIG1        0.3774
     48 N          10.1820    3.9600   14.7110 N.pl3   1  LIG1       -0.8050
     49 H          10.5820    4.5620   15.2480 H       1  LIG1        0.3463
     50 H           9.3440    3.6840   14.8900 H       1  LIG1        0.3370
@<TRIPOS>BOND
     1     1     2   ar
     2     2     3   ar
     3     3     4   ar
     4     4     5   ar
     5     5     6   ar
     6     6     1   ar
     7     6     7    1
     8     7     8    1
     9     7     9    1
    10     7    10    1
    11    10    11    1
    12    10    12    1
    13    10    13    1
    14    13    14    1
    15    13    15    1
    16    15    16    1
    17    15    17    1
    18    15     1    1
    19    13    18    1
    20    18    19    1
    21    18    20    1
    22    18    21    1
    23    21    22    1
    24    22    23   ar
    25    23    24    1
    26    23    25   ar
    27    25    26   ar
    28    26    27    1
    29    26    28   ar
    30    28    29    1
    31    28    30   ar
    32    30    22   ar
    33    30    31    1
    34    31    32    1
    35    32    33    1
    36    32    34    1
    37    32    35    1
    38    25    36    1
    39    36    37    1
    40    37    38    1
    41    37    39    1
    42    37    40    1
    43    21    41    1
    44    41    42    1
    45    41    43    1
    46    41    44    1
    47     4    45    1
    48    45    46    1
    49    45    47    1
    50     2    48    1
    51    48    49    1
    52    48    50    1
