@<TRIPOS>MOLECULE
19_6
 53 55 0 0 0
SMALL
USER_CHARGES
****
From 3DB ct
@<TRIPOS>ATOM
      1 C          12.2000    3.8600   13.2730 C.ar    1  LIG1       -0.6095
      2 C          10.8450    3.4660   13.6300 C.ar    1  LIG1        0.7513
      3 N          10.1440    2.5940   12.8960 N.ar    1  LIG1       -0.7053
      4 C          10.6980    1.9790   11.8240 C.ar    1  LIG1        0.8040
      5 N          12.0400    2.1470   11.5440 N.ar    1  LIG1       -0.6645
      6 C          12.7710    3.0540   12.3160 C.ar    1  LIG1        0.4607
      7 C          14.2620    3.0500   12.0220 C.3     1  LIG1       -0.1045
      8 H          14.5770    2.0210   11.7850 H       1  LIG1        0.0597
      9 H          14.4710    3.6520   11.1200 H       1  LIG1        0.0459
     10 C          15.0210    3.6230   13.2260 C.3     1  LIG1       -0.0331
     11 H          16.0900    3.7360   12.9740 H       1  LIG1        0.0041
     12 H          14.9700    2.9340   14.0880 H       1  LIG1        0.0452
     13 C          14.3780    4.9850   13.5720 C.3     1  LIG1        0.1079
     14 H          14.1740    5.4270   12.5810 H       1  LIG1        0.0543
     15 C          12.9590    4.8530   14.1790 C.3     1  LIG1        0.0445
     16 H          13.0260    4.4130   15.1920 H       1  LIG1        0.0333
     17 H          12.5200    5.6950   14.2030 H       1  LIG1        0.0134
     18 C          15.3640    5.9040   14.3000 C.3     1  LIG1       -0.2629
     19 H          14.8670    6.7660   14.7780 H       1  LIG1        0.0826
     20 H          15.8530    5.3580   15.1230 H       1  LIG1        0.1320
     21 N          16.3870    6.4120   13.4140 N.pl3   1  LIG1       -0.1600
     22 C          16.0360    7.0980   12.2490 C.ar    1  LIG1        0.1100
     23 C          14.7390    7.6590   12.0820 C.ar    1  LIG1       -0.3613
     24 H          13.9350    7.5460   12.8290 H       1  LIG1        0.1598
     25 C          14.4550    8.4760   10.9900 C.ar    1  LIG1        0.3522
     26 C          15.4170    8.7250   10.0190 C.ar    1  LIG1       -0.2591
     27 H          15.1900    9.2690    9.0860 H       1  LIG1        0.1294
     28 C          16.6720    8.2010   10.0950 C.ar    1  LIG1       -0.1644
     29 H          17.2250    8.3960    9.1640 H       1  LIG1        0.1351
     30 C          17.0030    7.4330   11.2800 C.ar    1  LIG1        0.0974
     31 O          18.2370    7.0520   11.4350 O.3     1  LIG1       -0.1906
     32 C          19.2280    7.3800   10.4700 C.3     1  LIG1       -0.0458
     33 H          18.7870    7.9670    9.6630 H       1  LIG1        0.0548
     34 H          20.0180    7.9600   10.9470 H       1  LIG1        0.0692
     35 H          19.6510    6.4630   10.0590 H       1  LIG1        0.0437
     36 O          13.1540    8.9830   10.8180 O.3     1  LIG1       -0.3082
     37 C          12.8360    9.8200    9.7100 C.3     1  LIG1        0.0489
     38 H          13.7120   10.3640    9.3280 H       1  LIG1        0.0284
     39 H          12.4090    9.2210    8.8890 H       1  LIG1        0.0297
     40 H          12.0860   10.5490   10.0500 H       1  LIG1        0.0598
     41 C          17.7200    6.3960   14.0180 C.3     1  LIG1        0.0728
     42 H          17.6930    6.0510   15.0600 H       1  LIG1        0.0145
     43 H          18.1650    7.4040   14.0310 H       1  LIG1        0.0488
     44 C          18.4630    5.4970   13.0810 C.3     1  LIG1       -0.1084
     45 H          19.5560    5.5250   13.1790 H       1  LIG1        0.0282
     46 H          18.0910    4.4700   13.0140 H       1  LIG1        0.0180
     47 H          18.1040    6.1490   12.1050 H       1  LIG1        0.0331
     48 N          10.0000    1.2030   11.0730 N.pl3   1  LIG1       -0.8234
     49 H           9.1310    1.0630   11.2570 H       1  LIG1        0.3731
     50 H          10.3810    0.8010   10.3640 H       1  LIG1        0.3757
     51 N          10.1820    3.9600   14.7110 N.pl3   1  LIG1       -0.8017
     52 H          10.5820    4.5620   15.2480 H       1  LIG1        0.3458
     53 H           9.3440    3.6840   14.8900 H       1  LIG1        0.3359
@<TRIPOS>BOND
     1     1     2   ar
     2     2     3   ar
     3     3     4   ar
     4     4     5   ar
     5     5     6   ar
     6     6     1   ar
     7     6     7    1
     8     7     8    1
     9     7     9    1
    10     7    10    1
    11    10    11    1
    12    10    12    1
    13    10    13    1
    14    13    14    1
    15    13    15    1
    16    15    16    1
    17    15    17    1
    18    15     1    1
    19    13    18    1
    20    18    19    1
    21    18    20    1
    22    18    21    1
    23    21    22    1
    24    22    23   ar
    25    23    24    1
    26    23    25   ar
    27    25    26   ar
    28    26    27    1
    29    26    28   ar
    30    28    29    1
    31    28    30   ar
    32    30    22   ar
    33    30    31    1
    34    31    32    1
    35    32    33    1
    36    32    34    1
    37    32    35    1
    38    25    36    1
    39    36    37    1
    40    37    38    1
    41    37    39    1
    42    37    40    1
    43    21    41    1
    44    41    42    1
    45    41    43    1
    46    41    44    1
    47    44    45    1
    48    44    46    1
    49    44    47    1
    50     4    48    1
    51    48    49    1
    52    48    50    1
    53     2    51    1
    54    51    52    1
    55    51    53    1
