@<TRIPOS>MOLECULE
1_107146
 53 55 0 0 0
SMALL
USER_CHARGES
****
From 3DB ct
@<TRIPOS>ATOM
      1 C          12.2000    3.8600   13.2730 C.ar    0  UNK0       -0.3547
      2 C          10.8450    3.4660   13.6300 C.ar    0  UNK0        0.6856
      3 N          10.1440    2.5940   12.8960 N.ar    0  UNK0       -0.6675
      4 C          10.6980    1.9790   11.8240 C.ar    0  UNK0        0.7642
      5 N          12.0400    2.1470   11.5440 N.ar    0  UNK0       -0.6747
      6 C          12.7710    3.0540   12.3160 C.ar    0  UNK0        0.6163
      7 N          14.0870    3.0620   11.9480 N.ar    0  UNK0       -0.4527
      8 C          14.8420    3.9790   12.6210 C.ar    0  UNK0        0.1734
      9 H          15.7750    3.9430   12.4450 H       0  UNK0        0.1001
     10 C          14.3310    4.9350   13.5230 C.ar    0  UNK0        0.1909
     11 N          12.9740    4.8700   13.8600 N.ar    0  UNK0       -0.2147
     12 C          15.2830    5.9410   14.2710 C.3     0  UNK0       -0.2814
     13 H          14.7820    6.6920   14.5650 H       0  UNK0        0.1204
     14 H          15.6790    5.5090   15.0190 H       0  UNK0        0.1088
     15 N          16.3690    6.3880   13.3050 N.pl3   0  UNK0       -0.0100
     16 C          16.0360    7.0980   12.2490 C.ar    0  UNK0       -0.1705
     17 C          14.7390    7.6590   12.0820 C.ar    0  UNK0       -0.0609
     18 H          13.9100    7.4950   12.7940 H       0  UNK0        0.0805
     19 C          14.4550    8.4760   10.9900 C.ar    0  UNK0       -0.1307
     20 H          13.4480    8.9260   10.8660 H       0  UNK0        0.1670
     21 C          15.4170    8.7250   10.0190 C.ar    0  UNK0       -0.0809
     22 C          16.6720    8.2010   10.0950 C.ar    0  UNK0       -0.1997
     23 H          17.3870    8.3670    9.2780 H       0  UNK0        0.1747
     24 C          17.0030    7.4330   11.2800 C.ar    0  UNK0        0.3074
     25 F          18.3090    7.0610   11.2290 F       0  UNK0       -0.2830
     26 C          15.0380    9.1920    8.7060 C.2     0  UNK0        0.6228
     27 N          13.8760    9.2150    7.9330 N.am    1  GLU1       -0.5739
     28 H          13.0080    8.9740    8.3740 H       1  GLU1        0.3097
     29 CA         13.6680    9.7480    6.7720 C.3     1  GLU1        0.0548
     30 HA         14.0430    9.2000    6.0930 H       1  GLU1        0.0480
     31 C          12.0670    9.8420    6.6200 C.2     1  GLU1        0.5157
     32 O          11.6420   10.6180    5.7560 O.co2   1  GLU1       -0.6697
     33 OXT        11.4120    9.1540    7.4150 O.co2   1  GLU1       -0.7099
     34 CB         14.1010   10.7610    6.7440 C.3     1  GLU1       -0.0461
     35 HB1        13.4580   11.3700    6.4000 H       1  GLU1        0.0391
     36 HB2        14.5350   11.0380    7.5420 H       1  GLU1        0.0368
     37 CG         15.4140   11.0060    5.8750 C.3     1  GLU1       -0.1326
     38 HG1        15.9350   11.8570    6.3560 H       1  GLU1       -0.0062
     39 HG2        16.0910   10.1460    6.0580 H       1  GLU1        0.0066
     40 CD         15.5840   11.2440    4.3480 C.2     1  GLU1        0.6057
     41 OE1        15.5110   10.3210    3.5400 O.co2   1  GLU1       -0.7458
     42 OE2        15.8050   12.4480    4.1270 O.co2   1  GLU1       -0.7205
     43 O          16.0900    9.5300    8.2300 O.2     0  UNK0       -0.5022
     44 C          17.6630    6.0650   13.5210 C.3     0  UNK0       -0.1449
     45 H          17.7440    5.4790   14.4370 H       0  UNK0        0.0538
     46 H          18.0360    5.4790   12.6800 H       0  UNK0        0.0729
     47 H          18.2530    6.9760   13.6190 H       0  UNK0        0.0892
     48 N          10.0000    1.2030   11.0730 N.pl3   0  UNK0       -0.7847
     49 H           9.1310    1.0630   11.2570 H       0  UNK0        0.3596
     50 H          10.3810    0.8010   10.3640 H       0  UNK0        0.3690
     51 N          10.1820    3.9600   14.7110 N.pl3   0  UNK0       -0.7669
     52 H          10.5820    4.5620   15.2480 H       0  UNK0        0.3634
     53 H           9.3440    3.6840   14.8900 H       0  UNK0        0.3483
@<TRIPOS>BOND
     1     1     2   ar
     2     2     3   ar
     3     3     4   ar
     4     4     5   ar
     5     5     6   ar
     6     6     1   ar
     7     6     7   ar
     8     7     8   ar
     9     8     9    1
    10     8    10   ar
    11    10    11   ar
    12    11     1   ar
    13    10    12    1
    14    12    13    1
    15    12    14    1
    16    12    15    1
    17    15    16    1
    18    16    17   ar
    19    17    18    1
    20    17    19   ar
    21    19    20    1
    22    19    21   ar
    23    21    22   ar
    24    22    23    1
    25    22    24   ar
    26    24    16   ar
    27    24    25    1
    28    21    26    1
    29    26    27   am
    30    27    28    1
    31    27    29    1
    32    29    30    1
    33    29    31    1
    34    31    32   ar
    35    31    33   ar
    36    29    34    1
    37    34    35    1
    38    34    36    1
    39    34    37    1
    40    37    38    1
    41    37    39    1
    42    37    40    1
    43    40    41   ar
    44    40    42   ar
    45    26    43    2
    46    15    44    1
    47    44    45    1
    48    44    46    1
    49    44    47    1
    50     4    48    1
    51    48    49    1
    52    48    50    1
    53     2    51    1
    54    51    52    1
    55    51    53    1
