@<TRIPOS>MOLECULE
1_144698
 56 58 0 0 0
SMALL
USER_CHARGES
****
From 3DB ct
@<TRIPOS>ATOM
      1 C          12.2000    3.8600   13.2730 C.ar    0  UNK0       -0.3198
      2 C          10.8450    3.4660   13.6300 C.ar    0  UNK0        0.6656
      3 N          10.1440    2.5940   12.8960 N.ar    0  UNK0       -0.6622
      4 C          10.6980    1.9790   11.8240 C.ar    0  UNK0        0.7658
      5 N          12.0400    2.1470   11.5440 N.ar    0  UNK0       -0.6688
      6 C          12.7710    3.0540   12.3160 C.ar    0  UNK0        0.5928
      7 N          14.0870    3.0620   11.9480 N.ar    0  UNK0       -0.4363
      8 C          14.8420    3.9790   12.6210 C.ar    0  UNK0        0.1791
      9 H          15.7750    3.9430   12.4450 H       0  UNK0        0.0953
     10 C          14.3310    4.9350   13.5230 C.ar    0  UNK0        0.1925
     11 N          12.9740    4.8700   13.8600 N.ar    0  UNK0       -0.2416
     12 C          15.2830    5.9410   14.2710 C.3     0  UNK0       -0.2689
     13 H          14.7820    6.6920   14.5650 H       0  UNK0        0.1143
     14 H          15.6790    5.5090   15.0190 H       0  UNK0        0.1206
     15 N          16.3690    6.3880   13.3050 N.pl3   0  UNK0       -0.2150
     16 C          16.0360    7.0980   12.2490 C.ar    0  UNK0        0.2903
     17 C          14.7390    7.6590   12.0820 C.ar    0  UNK0       -0.2244
     18 H          13.9100    7.4950   12.7940 H       0  UNK0        0.1107
     19 C          14.4550    8.4760   10.9900 C.ar    0  UNK0        0.0047
     20 H          13.4480    8.9260   10.8660 H       0  UNK0        0.1555
     21 C          15.4170    8.7250   10.0190 C.ar    0  UNK0       -0.1685
     22 C          16.6720    8.2010   10.0950 C.ar    0  UNK0        0.0851
     23 H          17.3870    8.3670    9.2780 H       0  UNK0        0.1283
     24 C          17.0030    7.4330   11.2800 C.ar    0  UNK0       -0.4732
     25 C          18.4860    6.8740   10.9850 C.3     0  UNK0        1.0300
     26 F          19.0730    7.4610    9.9360 F       0  UNK0       -0.3231
     27 F          19.4240    7.0430   11.9020 F       0  UNK0       -0.3267
     28 F          18.5000    5.5890   10.6410 F       0  UNK0       -0.3250
     29 C          15.0380    9.1920    8.7060 C.2     0  UNK0        0.5771
     30 N          13.8760    9.2150    7.9330 N.am    1  GLU1       -0.5273
     31 H          13.0080    8.9740    8.3740 H       1  GLU1        0.2943
     32 CA         13.6680    9.7480    6.7720 C.3     1  GLU1        0.0613
     33 HA         14.0430    9.2000    6.0930 H       1  GLU1        0.0473
     34 C          12.0670    9.8420    6.6200 C.2     1  GLU1        0.5130
     35 O          11.6420   10.6180    5.7560 O.co2   1  GLU1       -0.6682
     36 OXT        11.4120    9.1540    7.4150 O.co2   1  GLU1       -0.7101
     37 CB         14.1010   10.7610    6.7440 C.3     1  GLU1       -0.0643
     38 HB1        13.4580   11.3700    6.4000 H       1  GLU1        0.0466
     39 HB2        14.5350   11.0380    7.5420 H       1  GLU1        0.0410
     40 CG         15.4140   11.0060    5.8750 C.3     1  GLU1       -0.1455
     41 HG1        15.9350   11.8570    6.3560 H       1  GLU1       -0.0028
     42 HG2        16.0910   10.1460    6.0580 H       1  GLU1        0.0108
     43 CD         15.5840   11.2440    4.3480 C.2     1  GLU1        0.6097
     44 OE1        15.5110   10.3210    3.5400 O.co2   1  GLU1       -0.7435
     45 OE2        15.8050   12.4480    4.1270 O.co2   1  GLU1       -0.7211
     46 O          16.0900    9.5300    8.2300 O.2     0  UNK0       -0.4843
     47 C          17.6630    6.0650   13.5210 C.3     0  UNK0       -0.0491
     48 H          17.7440    5.4790   14.4370 H       0  UNK0        0.0472
     49 H          18.0360    5.4790   12.6800 H       0  UNK0        0.0373
     50 H          18.2530    6.9760   13.6190 H       0  UNK0        0.0669
     51 N          10.0000    1.2030   11.0730 N.pl3   0  UNK0       -0.7847
     52 H           9.1310    1.0630   11.2570 H       0  UNK0        0.3582
     53 H          10.3810    0.8010   10.3640 H       0  UNK0        0.3692
     54 N          10.1820    3.9600   14.7110 N.pl3   0  UNK0       -0.7562
     55 H          10.5820    4.5620   15.2480 H       0  UNK0        0.3556
     56 H           9.3440    3.6840   14.8900 H       0  UNK0        0.3448
@<TRIPOS>BOND
     1     1     2   ar
     2     2     3   ar
     3     3     4   ar
     4     4     5   ar
     5     5     6   ar
     6     6     1   ar
     7     6     7   ar
     8     7     8   ar
     9     8     9    1
    10     8    10   ar
    11    10    11   ar
    12    11     1   ar
    13    10    12    1
    14    12    13    1
    15    12    14    1
    16    12    15    1
    17    15    16    1
    18    16    17   ar
    19    17    18    1
    20    17    19   ar
    21    19    20    1
    22    19    21   ar
    23    21    22   ar
    24    22    23    1
    25    22    24   ar
    26    24    16   ar
    27    24    25    1
    28    25    26    1
    29    25    27    1
    30    25    28    1
    31    21    29    1
    32    29    30   am
    33    30    31    1
    34    30    32    1
    35    32    33    1
    36    32    34    1
    37    34    35   ar
    38    34    36   ar
    39    32    37    1
    40    37    38    1
    41    37    39    1
    42    37    40    1
    43    40    41    1
    44    40    42    1
    45    40    43    1
    46    43    44   ar
    47    43    45   ar
    48    29    46    2
    49    15    47    1
    50    47    48    1
    51    47    49    1
    52    47    50    1
    53     4    51    1
    54    51    52    1
    55    51    53    1
    56     2    54    1
    57    54    55    1
    58    54    56    1
