@<TRIPOS>MOLECULE
20_5a
 37 39 0 0 0
SMALL
USER_CHARGES
****
From 3DB ct
@<TRIPOS>ATOM
      1 C          12.4010    3.9580   12.9870 C.ar    1  LIG1       -0.5923
      2 C          11.0840    3.7940   13.5830 C.ar    1  LIG1        0.7597
      3 N          10.2390    2.8370   13.1810 N.ar    1  LIG1       -0.7109
      4 C          10.6060    1.9280   12.2470 C.ar    1  LIG1        0.8072
      5 N          11.9070    1.8940   11.7840 N.ar    1  LIG1       -0.6704
      6 C          12.7880    2.8900   12.2110 C.ar    1  LIG1        0.4460
      7 C          14.2250    2.6740   11.7630 C.3     1  LIG1       -0.0426
      8 H          14.4410    1.5930   11.7640 H       1  LIG1        0.0503
      9 H          14.3500    3.0120   10.7190 H       1  LIG1        0.0289
     10 C          15.1710    3.4520   12.6860 C.3     1  LIG1       -0.1226
     11 H          16.2010    3.3980   12.2950 H       1  LIG1        0.0263
     12 H          15.1910    3.0050   13.6960 H       1  LIG1        0.0556
     13 C          14.6660    4.9120   12.7410 C.3     1  LIG1        0.2471
     14 H          14.3610    5.1120   11.6990 H       1  LIG1        0.0121
     15 C          13.3340    5.0670   13.5180 C.3     1  LIG1       -0.0315
     16 H          13.5070    4.8860   14.5950 H       1  LIG1        0.0582
     17 H          12.9560    5.9270   13.3740 H       1  LIG1        0.0235
     18 C          15.7500    5.9080   13.1780 C.3     1  LIG1       -0.5042
     19 H          15.5670    6.3650   14.1650 H       1  LIG1        0.1318
     20 H          16.7850    5.5610   13.3140 H       1  LIG1        0.1229
     21 C          15.6400    7.0030   12.0830 C.ar    1  LIG1        0.2250
     22 C          16.8000    7.4570   11.4800 C.ar    1  LIG1       -0.2219
     23 H          17.6320    7.0430   11.6780 H       1  LIG1        0.1360
     24 C          16.7110    8.5190   10.5940 C.ar    1  LIG1       -0.0739
     25 H          17.4910    8.8400   10.1580 H       1  LIG1        0.1030
     26 C          15.4850    9.1280   10.3320 C.ar    1  LIG1       -0.1287
     27 H          15.4340    9.8480    9.7140 H       1  LIG1        0.1048
     28 C          14.3730    8.6590   10.9840 C.ar    1  LIG1       -0.0832
     29 H          13.5280    9.0670   10.8350 H       1  LIG1        0.1034
     30 C          14.4370    7.6050   11.8590 C.ar    1  LIG1       -0.1915
     31 H          13.6590    7.2930   12.3060 H       1  LIG1        0.1199
     32 N           9.7670    1.0600   11.8040 N.pl3   1  LIG1       -0.8207
     33 H           8.9220    1.0520   12.1140 H       1  LIG1        0.3715
     34 H          10.0250    0.4620   11.1830 H       1  LIG1        0.3763
     35 N          10.6020    4.5990   14.5690 N.pl3   1  LIG1       -0.8079
     36 H          11.1060    5.2740   14.8850 H       1  LIG1        0.3529
     37 H           9.7800    4.4550   14.9060 H       1  LIG1        0.3401
@<TRIPOS>BOND
     1     1     2   ar
     2     2     3   ar
     3     3     4   ar
     4     4     5   ar
     5     5     6   ar
     6     6     1   ar
     7     6     7    1
     8     7     8    1
     9     7     9    1
    10     7    10    1
    11    10    11    1
    12    10    12    1
    13    10    13    1
    14    13    14    1
    15    13    15    1
    16    15    16    1
    17    15    17    1
    18    15     1    1
    19    13    18    1
    20    18    19    1
    21    18    20    1
    22    18    21    1
    23    21    22   ar
    24    22    23    1
    25    22    24   ar
    26    24    25    1
    27    24    26   ar
    28    26    27    1
    29    26    28   ar
    30    28    29    1
    31    28    30   ar
    32    30    31    1
    33    30    21   ar
    34     4    32    1
    35    32    33    1
    36    32    34    1
    37     2    35    1
    38    35    36    1
    39    35    37    1
