@<TRIPOS>MOLECULE
20_5k
 45 47 0 0 0
SMALL
USER_CHARGES
****
From 3DB ct
@<TRIPOS>ATOM
      1 C          12.4010    3.9580   12.9870 C.ar    1  LIG1       -0.6258
      2 C          11.0840    3.7940   13.5830 C.ar    1  LIG1        0.7672
      3 N          10.2390    2.8370   13.1810 N.ar    1  LIG1       -0.7136
      4 C          10.6060    1.9280   12.2470 C.ar    1  LIG1        0.8190
      5 N          11.9070    1.8940   11.7840 N.ar    1  LIG1       -0.6834
      6 C          12.7880    2.8900   12.2110 C.ar    1  LIG1        0.4607
      7 C          14.2250    2.6740   11.7630 C.3     1  LIG1       -0.0106
      8 H          14.4410    1.5930   11.7640 H       1  LIG1        0.0411
      9 H          14.3500    3.0120   10.7190 H       1  LIG1        0.0270
     10 C          15.1710    3.4520   12.6860 C.3     1  LIG1       -0.1424
     11 H          16.2010    3.3980   12.2950 H       1  LIG1        0.0319
     12 H          15.1910    3.0050   13.6960 H       1  LIG1        0.0564
     13 C          14.6660    4.9120   12.7410 C.3     1  LIG1        0.1358
     14 H          14.3610    5.1120   11.6990 H       1  LIG1        0.0271
     15 C          13.3340    5.0670   13.5180 C.3     1  LIG1        0.0467
     16 H          13.5070    4.8860   14.5950 H       1  LIG1        0.0437
     17 H          12.9560    5.9270   13.3740 H       1  LIG1        0.0118
     18 C          15.7500    5.9080   13.1780 C.3     1  LIG1       -0.2460
     19 H          15.5670    6.3650   14.1650 H       1  LIG1        0.0782
     20 H          16.7850    5.5610   13.3140 H       1  LIG1        0.0702
     21 C          15.6400    7.0030   12.0830 C.ar    1  LIG1        0.0463
     22 C          16.8000    7.4570   11.4800 C.ar    1  LIG1       -0.2809
     23 H          17.6320    7.0430   11.6780 H       1  LIG1        0.1710
     24 C          16.7110    8.5190   10.5940 C.ar    1  LIG1        0.1605
     25 C          15.4850    9.1280   10.3320 C.ar    1  LIG1        0.1949
     26 C          14.3730    8.6590   10.9840 C.ar    1  LIG1       -0.2153
     27 H          13.5280    9.0670   10.8350 H       1  LIG1        0.1465
     28 C          14.4370    7.6050   11.8590 C.ar    1  LIG1       -0.1088
     29 H          13.6590    7.2930   12.3060 H       1  LIG1        0.1139
     30 O          15.4160   10.1130    9.4870 O.3     1  LIG1       -0.3063
     31 C          16.5800   10.5850    8.8200 C.3     1  LIG1        0.1076
     32 H          17.4490   10.0010    9.1240 H       1  LIG1        0.0127
     33 H          16.4410   10.4920    7.7430 H       1  LIG1        0.0377
     34 H          16.7420   11.6330    9.0730 H       1  LIG1        0.0203
     35 O          17.7780    8.9580    9.9970 O.3     1  LIG1       -0.2584
     36 C          19.0470    8.3630   10.2390 C.3     1  LIG1        0.0307
     37 H          18.9470    7.5400   10.9470 H       1  LIG1        0.0260
     38 H          19.4530    7.9850    9.3010 H       1  LIG1        0.0594
     39 H          19.7250    9.1110   10.6490 H       1  LIG1        0.0423
     40 N           9.7670    1.0600   11.8040 N.pl3   1  LIG1       -0.8262
     41 H           8.9220    1.0520   12.1140 H       1  LIG1        0.3738
     42 H          10.0250    0.4620   11.1830 H       1  LIG1        0.3781
     43 N          10.6020    4.5990   14.5690 N.pl3   1  LIG1       -0.8144
     44 H          11.1060    5.2740   14.8850 H       1  LIG1        0.3522
     45 H           9.7800    4.4550   14.9060 H       1  LIG1        0.3416
@<TRIPOS>BOND
     1     1     2   ar
     2     2     3   ar
     3     3     4   ar
     4     4     5   ar
     5     5     6   ar
     6     6     1   ar
     7     6     7    1
     8     7     8    1
     9     7     9    1
    10     7    10    1
    11    10    11    1
    12    10    12    1
    13    10    13    1
    14    13    14    1
    15    13    15    1
    16    15    16    1
    17    15    17    1
    18    15     1    1
    19    13    18    1
    20    18    19    1
    21    18    20    1
    22    18    21    1
    23    21    22   ar
    24    22    23    1
    25    22    24   ar
    26    24    25   ar
    27    25    26   ar
    28    26    27    1
    29    26    28   ar
    30    28    29    1
    31    28    21   ar
    32    25    30    1
    33    30    31    1
    34    31    32    1
    35    31    33    1
    36    31    34    1
    37    24    35    1
    38    35    36    1
    39    36    37    1
    40    36    38    1
    41    36    39    1
    42     4    40    1
    43    40    41    1
    44    40    42    1
    45     2    43    1
    46    43    44    1
    47    43    45    1
