@<TRIPOS>MOLECULE
21_23
 34 36 0 0 0
SMALL
USER_CHARGES
****
From 3DB ct
@<TRIPOS>ATOM
      1 N          10.1620    2.6390   12.9030 N.ar    1  LIG1       -0.6513
      2 C          10.7370    1.9580   11.9140 C.ar    1  LIG1        0.7778
      3 N          12.0030    2.1170   11.5300 N.ar    1  LIG1       -0.6373
      4 C          12.7410    3.0260   12.1920 C.ar    1  LIG1        0.2802
      5 C          12.2610    3.8070   13.2460 C.ar    1  LIG1       -0.1292
      6 C          10.9190    3.5540   13.5420 C.ar    1  LIG1        0.6199
      7 N          10.2930    4.2090   14.5970 N.pl3   1  LIG1       -0.7671
      8 H          10.6240    5.1420   14.8260 H       1  LIG1        0.3632
      9 H           9.3080    4.0180   14.7360 H       1  LIG1        0.3599
     10 N          13.0270    4.7290   13.9090 N.ar    1  LIG1       -0.3449
     11 C          14.3220    4.8860   13.5310 C.ar    1  LIG1        0.2358
     12 C          14.8670    4.1550   12.4860 C.ar    1  LIG1       -0.2285
     13 H          15.8980    4.3050   12.1780 H       1  LIG1        0.1460
     14 C          14.0640    3.2240   11.8280 C.ar    1  LIG1       -0.0789
     15 H          14.4870    2.6450   11.0090 H       1  LIG1        0.1237
     16 C          15.1560    5.9300   14.2520 C.3     1  LIG1        0.0472
     17 H          15.4650    5.5300   15.2230 H       1  LIG1        0.0791
     18 H          14.5260    6.8060   14.4540 H       1  LIG1        0.0675
     19 N          16.2900    6.3300   13.4160 N.pl3   1  LIG1       -0.6824
     20 H          16.9830    5.5870   13.3120 H       1  LIG1        0.3451
     21 C          16.0260    7.0760   12.2640 C.ar    1  LIG1        0.5292
     22 C          14.7440    7.6310   12.1150 C.ar    1  LIG1       -0.0035
     23 H          13.9820    7.4370   12.8680 H       1  LIG1        0.0652
     24 C          14.4340    8.4430   11.0220 C.ar    1  LIG1       -0.3576
     25 C          15.3940    8.7240   10.0550 C.ar    1  LIG1        0.0171
     26 H          15.1570    9.3550    9.2020 H       1  LIG1        0.0653
     27 C          16.6740    8.1840   10.1810 C.ar    1  LIG1        0.1278
     28 H          17.4180    8.3960    9.4170 H       1  LIG1        0.0676
     29 C          16.9900    7.3700   11.2760 C.ar    1  LIG1       -0.5328
     30 CL         18.5780    6.6780   11.3150 Cl      1  LIG1        0.0697
     31 CL         12.8530    9.1090   10.8730 Cl      1  LIG1        0.0850
     32 N           9.9870    1.0370   11.2520 N.pl3   1  LIG1       -0.8059
     33 H          10.3960    0.5040   10.4990 H       1  LIG1        0.3769
     34 H           9.0240    0.8910   11.5180 H       1  LIG1        0.3702
@<TRIPOS>BOND
     1     1     2   ar
     2     2     3   ar
     3     3     4   ar
     4     4     5   ar
     5     5     6   ar
     6     6     1   ar
     7     6     7    1
     8     7     8    1
     9     7     9    1
    10     5    10   ar
    11    10    11   ar
    12    11    12   ar
    13    12    13    1
    14    12    14   ar
    15    14    15    1
    16    14     4   ar
    17    11    16    1
    18    16    17    1
    19    16    18    1
    20    16    19    1
    21    19    20    1
    22    19    21    1
    23    21    22   ar
    24    22    23    1
    25    22    24   ar
    26    24    25   ar
    27    25    26    1
    28    25    27   ar
    29    27    28    1
    30    27    29   ar
    31    29    21   ar
    32    29    30    1
    33    24    31    1
    34     2    32    1
    35    32    33    1
    36    32    34    1
