@<TRIPOS>MOLECULE
21_21
 34 36 0 0 0
SMALL
USER_CHARGES
****
From 3DB ct
@<TRIPOS>ATOM
      1 N          10.1640    2.6310   12.9090 N.ar    1  LIG1       -0.6524
      2 C          10.7370    1.9560   11.9150 C.ar    1  LIG1        0.7813
      3 N          12.0030    2.1170   11.5300 N.ar    1  LIG1       -0.6311
      4 C          12.7410    3.0250   12.1930 C.ar    1  LIG1        0.2547
      5 C          12.2640    3.7980   13.2540 C.ar    1  LIG1       -0.1013
      6 C          10.9300    3.5260   13.5670 C.ar    1  LIG1        0.6080
      7 N          10.2800    4.2400   14.5670 N.pl3   1  LIG1       -0.7471
      8 H          10.8470    4.5900   15.3340 H       1  LIG1        0.3555
      9 H           9.3260    3.9700   14.7790 H       1  LIG1        0.3531
     10 N          13.0310    4.7180   13.9190 N.ar    1  LIG1       -0.3781
     11 C          14.3210    4.8860   13.5310 C.ar    1  LIG1        0.2714
     12 C          14.8630    4.1620   12.4800 C.ar    1  LIG1       -0.2426
     13 H          15.8920    4.3190   12.1670 H       1  LIG1        0.1469
     14 C          14.0600    3.2310   11.8210 C.ar    1  LIG1       -0.0653
     15 H          14.4810    2.6590   10.9970 H       1  LIG1        0.1238
     16 C          15.1580    5.9280   14.2530 C.3     1  LIG1        0.0219
     17 H          15.4690    5.5200   15.2200 H       1  LIG1        0.0840
     18 H          14.5320    6.8040   14.4630 H       1  LIG1        0.0698
     19 N          16.2890    6.3330   13.4150 N.pl3   1  LIG1       -0.6947
     20 H          16.9880    5.5960   13.3130 H       1  LIG1        0.3382
     21 C          16.0280    7.0800   12.2640 C.ar    1  LIG1        0.7728
     22 C          14.7460    7.6330   12.1140 C.ar    1  LIG1       -0.4551
     23 H          13.9780    7.4440   12.8630 H       1  LIG1        0.1624
     24 C          14.4290    8.4450   11.0210 C.ar    1  LIG1        0.3109
     25 H          13.4270    8.8600   10.9340 H       1  LIG1        0.0452
     26 C          15.3970    8.7180   10.0600 C.ar    1  LIG1       -0.6261
     27 C          16.6760    8.1850   10.1790 C.ar    1  LIG1        0.5393
     28 H          17.4250    8.3910    9.4190 H       1  LIG1       -0.0081
     29 C          16.9900    7.3720   11.2740 C.ar    1  LIG1       -0.7566
     30 CL         18.5780    6.6780   11.3110 Cl      1  LIG1        0.0897
     31 CL         15.0070    9.7160    8.7130 Cl      1  LIG1        0.0904
     32 N           9.9830    1.0440   11.2460 N.pl3   1  LIG1       -0.8096
     33 H          10.3900    0.5170   10.4870 H       1  LIG1        0.3774
     34 H           9.0200    0.8990   11.5110 H       1  LIG1        0.3715
@<TRIPOS>BOND
     1     1     2   ar
     2     2     3   ar
     3     3     4   ar
     4     4     5   ar
     5     5     6   ar
     6     6     1   ar
     7     6     7    1
     8     7     8    1
     9     7     9    1
    10     5    10   ar
    11    10    11   ar
    12    11    12   ar
    13    12    13    1
    14    12    14   ar
    15    14    15    1
    16    14     4   ar
    17    11    16    1
    18    16    17    1
    19    16    18    1
    20    16    19    1
    21    19    20    1
    22    19    21    1
    23    21    22   ar
    24    22    23    1
    25    22    24   ar
    26    24    25    1
    27    24    26   ar
    28    26    27   ar
    29    27    28    1
    30    27    29   ar
    31    29    21   ar
    32    29    30    1
    33    26    31    1
    34     2    32    1
    35    32    33    1
    36    32    34    1
