@<TRIPOS>MOLECULE
21_5
 37 39 0 0 0
SMALL
USER_CHARGES
****
From 3DB ct
@<TRIPOS>ATOM
      1 N          10.1530    2.6430   12.9130 N.ar    1  LIG1       -0.6667
      2 C          10.7130    1.9640   11.9130 C.ar    1  LIG1        0.7943
      3 N          11.9770    2.1120   11.5200 N.ar    1  LIG1       -0.6361
      4 C          12.7320    3.0040   12.1860 C.ar    1  LIG1        0.2486
      5 C          12.2720    3.7740   13.2560 C.ar    1  LIG1       -0.1299
      6 C          10.9360    3.5210   13.5720 C.ar    1  LIG1        0.6367
      7 N          10.3010    4.2380   14.5820 N.pl3   1  LIG1       -0.7619
      8 H          10.8780    4.5580   15.3550 H       1  LIG1        0.3586
      9 H           9.3440    3.9800   14.7930 H       1  LIG1        0.3562
     10 N          13.0570    4.6700   13.9300 N.ar    1  LIG1       -0.3774
     11 C          14.3510    4.8240   13.5430 C.ar    1  LIG1        0.3547
     12 C          14.8750    4.1020   12.4820 C.ar    1  LIG1       -0.2885
     13 H          15.9070    4.2310   12.1680 H       1  LIG1        0.1547
     14 C          14.0530    3.1940   11.8130 C.ar    1  LIG1       -0.0507
     15 H          14.4610    2.6230   10.9810 H       1  LIG1        0.1209
     16 C          15.2050    5.8240   14.3070 C.3     1  LIG1       -0.1467
     17 H          15.5880    5.3680   15.2240 H       1  LIG1        0.0965
     18 H          14.5460    6.6260   14.6670 H       1  LIG1        0.0869
     19 N          16.2580    6.4230   13.4580 N.pl3   1  LIG1       -0.2212
     20 C          15.9940    7.1620   12.3120 C.ar    1  LIG1        0.2084
     21 C          14.7270    7.7270   12.0690 C.ar    1  LIG1       -0.1997
     22 H          13.9060    7.5900   12.7700 H       1  LIG1        0.1081
     23 C          14.4450    8.4870   10.9240 C.ar    1  LIG1       -0.0562
     24 H          13.4490    8.9030   10.7820 H       1  LIG1        0.1013
     25 C          15.4330    8.7100    9.9760 C.ar    1  LIG1       -0.1667
     26 H          15.2210    9.3000    9.0870 H       1  LIG1        0.1029
     27 C          16.6960    8.1730   10.1790 C.ar    1  LIG1       -0.0414
     28 H          17.4840    8.3420    9.4470 H       1  LIG1        0.0974
     29 C          16.9660    7.4160   11.3290 C.ar    1  LIG1       -0.2409
     30 H          17.9820    7.0410   11.4200 H       1  LIG1        0.1105
     31 C          17.6190    6.3510   14.0040 C.3     1  LIG1       -0.0111
     32 H          17.9520    7.3370   14.3450 H       1  LIG1        0.0369
     33 H          18.3190    5.9620   13.2570 H       1  LIG1        0.0366
     34 H          17.6750    5.6730   14.8630 H       1  LIG1        0.0542
     35 N           9.9450    1.0610   11.2480 N.pl3   1  LIG1       -0.8203
     36 H          10.3440    0.5230   10.4940 H       1  LIG1        0.3777
     37 H           8.9850    0.9180   11.5270 H       1  LIG1        0.3733
@<TRIPOS>BOND
     1     1     2   ar
     2     2     3   ar
     3     3     4   ar
     4     4     5   ar
     5     5     6   ar
     6     6     1   ar
     7     6     7    1
     8     7     8    1
     9     7     9    1
    10     5    10   ar
    11    10    11   ar
    12    11    12   ar
    13    12    13    1
    14    12    14   ar
    15    14    15    1
    16    14     4   ar
    17    11    16    1
    18    16    17    1
    19    16    18    1
    20    16    19    1
    21    19    20    1
    22    20    21   ar
    23    21    22    1
    24    21    23   ar
    25    23    24    1
    26    23    25   ar
    27    25    26    1
    28    25    27   ar
    29    27    28    1
    30    27    29   ar
    31    29    30    1
    32    29    20   ar
    33    19    31    1
    34    31    32    1
    35    31    33    1
    36    31    34    1
    37     2    35    1
    38    35    36    1
    39    35    37    1
