@<TRIPOS>MOLECULE
22_18
 34 36 0 0 0
SMALL
USER_CHARGES
****
From 3DB ct
@<TRIPOS>ATOM
      1 N          10.2590    2.7520   13.0820 N.ar    1  LIG1       -0.6798
      2 C          10.6650    1.7720   12.2770 C.ar    1  LIG1        0.8193
      3 N          11.8710    1.7150   11.7150 N.ar    1  LIG1       -0.6501
      4 C          12.7260    2.7180   11.9840 C.ar    1  LIG1        0.2272
      5 C          12.4300    3.8000   12.8100 C.ar    1  LIG1       -0.1727
      6 C          11.1410    3.7380   13.3450 C.ar    1  LIG1        0.6650
      7 N          10.6610    4.7640   14.1490 N.pl3   1  LIG1       -0.7802
      8 H          11.3400    5.2900   14.6910 H       1  LIG1        0.3535
      9 H           9.7350    4.6470   14.5450 H       1  LIG1        0.3593
     10 N          13.3160    4.8110   13.0750 N.ar    1  LIG1       -0.3892
     11 C          14.5500    4.7820   12.5240 C.ar    1  LIG1        0.6119
     12 C          14.9010    3.7370   11.6770 C.ar    1  LIG1       -0.4064
     13 H          15.8690    3.7110   11.1840 H       1  LIG1        0.1575
     14 C          13.9870    2.7120   11.4180 C.ar    1  LIG1        0.0216
     15 H          14.2750    1.9010   10.7520 H       1  LIG1        0.1159
     16 N          15.4520    5.8340   12.7980 N.pl3   1  LIG1       -0.5410
     17 C          15.5860    7.0310   12.0520 C.ar    1  LIG1        0.3598
     18 C          14.4630    7.8320   11.7700 C.ar    1  LIG1       -0.1827
     19 H          13.4750    7.5410   12.1240 H       1  LIG1        0.1100
     20 C          14.5590    9.0100   11.0180 C.ar    1  LIG1       -0.1000
     21 H          13.6670    9.6020   10.8220 H       1  LIG1        0.1138
     22 C          15.7900    9.4190   10.5220 C.ar    1  LIG1       -0.1331
     23 H          15.8700   10.3340    9.9380 H       1  LIG1        0.1081
     24 C          16.9190    8.6490   10.7760 C.ar    1  LIG1       -0.0546
     25 H          17.8880    8.9610   10.3900 H       1  LIG1        0.1034
     26 C          16.8160    7.4710   11.5270 C.ar    1  LIG1       -0.2516
     27 H          17.7360    6.9170   11.6970 H       1  LIG1        0.1424
     28 C          16.0690    5.7890   14.1340 C.3     1  LIG1        0.0293
     29 H          15.5360    6.4560   14.8210 H       1  LIG1        0.0264
     30 H          17.1230    6.0870   14.0850 H       1  LIG1        0.0547
     31 H          16.0560    4.7960   14.5960 H       1  LIG1        0.0477
     32 N           9.7930    0.7640   12.0080 N.pl3   1  LIG1       -0.8461
     33 H          10.0720    0.0070   11.4010 H       1  LIG1        0.3830
     34 H           8.8710    0.7770   12.4180 H       1  LIG1        0.3773
@<TRIPOS>BOND
     1     1     2   ar
     2     2     3   ar
     3     3     4   ar
     4     4     5   ar
     5     5     6   ar
     6     6     1   ar
     7     6     7    1
     8     7     8    1
     9     7     9    1
    10     5    10   ar
    11    10    11   ar
    12    11    12   ar
    13    12    13    1
    14    12    14   ar
    15    14    15    1
    16    14     4   ar
    17    11    16    1
    18    16    17    1
    19    17    18   ar
    20    18    19    1
    21    18    20   ar
    22    20    21    1
    23    20    22   ar
    24    22    23    1
    25    22    24   ar
    26    24    25    1
    27    24    26   ar
    28    26    27    1
    29    26    17   ar
    30    16    28    1
    31    28    29    1
    32    28    30    1
    33    28    31    1
    34     2    32    1
    35    32    33    1
    36    32    34    1
