@<TRIPOS>MOLECULE
24_2b
 45 47 0 0 0
SMALL
USER_CHARGES
****
From 3DB ct
@<TRIPOS>ATOM
      1 N          10.1120    2.6470   12.7790 N.ar    1  LIG1       -0.7115
      2 C          10.7920    1.9690   11.8680 C.ar    1  LIG1        0.8001
      3 N          12.0790    2.1510   11.6160 N.ar    1  LIG1       -0.6963
      4 C          12.7340    3.0580   12.3200 C.ar    1  LIG1        0.8243
      5 C          12.1550    3.8340   13.3310 C.ar    1  LIG1       -0.8353
      6 C          10.7750    3.5710   13.4920 C.ar    1  LIG1        0.8158
      7 N           9.9710    4.2370   14.4050 N.pl3   1  LIG1       -0.7549
      8 H          10.1370    3.9950   15.3790 H       1  LIG1        0.3204
      9 H           9.9320    5.2470   14.2890 H       1  LIG1        0.3252
     10 C          13.0120    4.7710   14.0360 C.ar    1  LIG1        0.4355
     11 C          14.3420    4.9470   13.6060 C.ar    1  LIG1       -0.3796
     12 C          14.7820    4.0920   12.6070 C.ar    1  LIG1        0.3826
     13 H          15.8140    4.1260   12.2580 H       1  LIG1        0.0813
     14 N          14.0140    3.1710   11.9840 N.ar    1  LIG1       -0.5892
     15 C          15.3250    5.9360   14.2010 C.3     1  LIG1        0.1280
     16 H          15.7900    5.4530   15.0690 H       1  LIG1        0.0484
     17 H          14.8270    6.8490   14.5340 H       1  LIG1        0.0702
     18 N          16.3280    6.3350   13.2210 N.pl3   1  LIG1       -0.5744
     19 H          17.1740    5.7660   13.1830 H       1  LIG1        0.3203
     20 C          16.0730    7.1580   12.1390 C.ar    1  LIG1        0.4195
     21 C          14.7890    7.6960   11.9890 C.ar    1  LIG1       -0.4850
     22 H          14.0270    7.4840   12.7390 H       1  LIG1        0.1549
     23 C          14.4470    8.5050   10.8980 C.ar    1  LIG1        0.4769
     24 C          15.4030    8.7810    9.9200 C.ar    1  LIG1       -0.4970
     25 H          15.1500    9.4070    9.0730 H       1  LIG1        0.1541
     26 C          16.6860    8.2420   10.0350 C.ar    1  LIG1        0.4276
     27 C          17.0060    7.4340   11.1350 C.ar    1  LIG1       -0.4760
     28 H          18.0140    7.0290   11.1900 H       1  LIG1        0.1382
     29 O          17.7140    8.4240    9.1490 O.3     1  LIG1       -0.2937
     30 C          18.9310    7.7290    9.4160 C.3     1  LIG1        0.0562
     31 H          19.6410    7.9840    8.6230 H       1  LIG1        0.0545
     32 H          18.7780    6.6450    9.3920 H       1  LIG1        0.0349
     33 H          19.3660    8.0500   10.3690 H       1  LIG1        0.0289
     34 O          13.1540    8.9570   10.9070 O.3     1  LIG1       -0.3068
     35 C          12.7490    9.7840    9.8170 C.3     1  LIG1        0.0317
     36 H          11.7000   10.0520    9.9760 H       1  LIG1        0.0583
     37 H          12.8160    9.2430    8.8680 H       1  LIG1        0.0443
     38 H          13.3310   10.7110    9.7900 H       1  LIG1        0.0417
     39 C          12.4860    5.5600   15.2110 C.3     1  LIG1       -0.1950
     40 H          11.9260    4.9130   15.8920 H       1  LIG1        0.0699
     41 H          11.8590    6.3870   14.8660 H       1  LIG1        0.0659
     42 H          13.2800    5.9690   15.8400 H       1  LIG1        0.0393
     43 N          10.1260    1.0300   11.1430 N.pl3   1  LIG1       -0.8026
     44 H          10.6160    0.4970   10.4390 H       1  LIG1        0.3768
     45 H           9.1430    0.8730   11.3110 H       1  LIG1        0.3716
@<TRIPOS>BOND
     1     1     2   ar
     2     2     3   ar
     3     3     4   ar
     4     4     5   ar
     5     5     6   ar
     6     6     1   ar
     7     6     7    1
     8     7     8    1
     9     7     9    1
    10     5    10   ar
    11    10    11   ar
    12    11    12   ar
    13    12    13    1
    14    12    14   ar
    15    14     4   ar
    16    11    15    1
    17    15    16    1
    18    15    17    1
    19    15    18    1
    20    18    19    1
    21    18    20    1
    22    20    21   ar
    23    21    22    1
    24    21    23   ar
    25    23    24   ar
    26    24    25    1
    27    24    26   ar
    28    26    27   ar
    29    27    28    1
    30    27    20   ar
    31    26    29    1
    32    29    30    1
    33    30    31    1
    34    30    32    1
    35    30    33    1
    36    23    34    1
    37    34    35    1
    38    35    36    1
    39    35    37    1
    40    35    38    1
    41    10    39    1
    42    39    40    1
    43    39    41    1
    44    39    42    1
    45     2    43    1
    46    43    44    1
    47    43    45    1
