@<TRIPOS>MOLECULE
24_2e
 51 53 0 0 0
SMALL
USER_CHARGES
****
From 3DB ct
@<TRIPOS>ATOM
      1 N          10.1230    2.5980   12.8140 N.ar    1  LIG1       -0.7117
      2 C          10.8020    1.9470   11.8810 C.ar    1  LIG1        0.8014
      3 N          12.0760    2.1680   11.6020 N.ar    1  LIG1       -0.7014
      4 C          12.7190    3.0940   12.2920 C.ar    1  LIG1        0.8328
      5 C          12.1320    3.8660   13.3010 C.ar    1  LIG1       -0.8519
      6 C          10.7740    3.5400   13.5140 C.ar    1  LIG1        0.8147
      7 N           9.9820    4.1500   14.4770 N.pl3   1  LIG1       -0.7504
      8 H          10.2790    3.9900   15.4370 H       1  LIG1        0.3186
      9 H           9.7990    5.1380   14.3230 H       1  LIG1        0.3220
     10 C          12.9630    4.8490   13.9690 C.ar    1  LIG1        0.4628
     11 C          14.3200    4.9620   13.6040 C.ar    1  LIG1       -0.4060
     12 C          14.7630    4.1370   12.5840 C.ar    1  LIG1        0.3910
     13 H          15.7950    4.1790   12.2350 H       1  LIG1        0.0875
     14 N          13.9930    3.2320   11.9410 N.ar    1  LIG1       -0.5920
     15 C          15.3140    5.9110   14.2400 C.3     1  LIG1        0.1160
     16 H          15.7910    5.4080   15.0900 H       1  LIG1        0.0626
     17 H          14.7710    6.7740   14.6410 H       1  LIG1        0.0645
     18 N          16.3220    6.3100   13.2750 N.pl3   1  LIG1       -0.5373
     19 H          17.2530    5.9210   13.4070 H       1  LIG1        0.3156
     20 C          16.1090    7.1160   12.1650 C.ar    1  LIG1        0.2522
     21 C          14.8130    7.6480   12.0070 C.ar    1  LIG1       -0.3100
     22 H          14.0480    7.4140   12.7470 H       1  LIG1        0.1470
     23 C          14.4620    8.4710   10.9310 C.ar    1  LIG1        0.2668
     24 C          15.4240    8.7800    9.9790 C.ar    1  LIG1       -0.2750
     25 H          15.2100    9.4190    9.1260 H       1  LIG1        0.1118
     26 C          16.7180    8.2680   10.1020 C.ar    1  LIG1       -0.0911
     27 H          17.4440    8.5530    9.3440 H       1  LIG1        0.1038
     28 C          17.0660    7.4310   11.1750 C.ar    1  LIG1        0.0049
     29 O          18.3330    6.9290   11.3290 O.3     1  LIG1       -0.2909
     30 C          19.3180    7.3180   10.3670 C.3     1  LIG1        0.2318
     31 H          19.6420    8.3470   10.5580 H       1  LIG1        0.0077
     32 H          18.9240    7.2260    9.3480 H       1  LIG1        0.0117
     33 C          20.5050    6.3830   10.5270 C.3     1  LIG1       -0.2105
     34 H          21.2980    6.6320    9.8160 H       1  LIG1        0.0502
     35 H          20.1990    5.3440   10.3670 H       1  LIG1        0.0643
     36 H          20.9080    6.4430   11.5430 H       1  LIG1        0.0600
     37 O          13.1620    8.8980   10.9310 O.3     1  LIG1       -0.3211
     38 C          12.7600    9.7510    9.8540 C.3     1  LIG1        0.2614
     39 H          12.8800    9.2340    8.8950 H       1  LIG1        0.0063
     40 H          13.3500   10.6740    9.8630 H       1  LIG1        0.0029
     41 C          11.2940   10.0940   10.0500 C.3     1  LIG1       -0.2340
     42 H          10.9390   10.7560    9.2550 H       1  LIG1        0.0536
     43 H          11.1380   10.5870   11.0150 H       1  LIG1        0.0685
     44 H          10.6820    9.1860   10.0520 H       1  LIG1        0.0691
     45 C          12.3940    5.7430   15.0440 C.3     1  LIG1       -0.1983
     46 H          12.0670    5.1480   15.9020 H       1  LIG1        0.0695
     47 H          11.5620    6.3300   14.6440 H       1  LIG1        0.0630
     48 H          13.1110    6.4710   15.4300 H       1  LIG1        0.0406
     49 N          10.1490    0.9890   11.1690 N.pl3   1  LIG1       -0.8036
     50 H          10.6410    0.4660   10.4600 H       1  LIG1        0.3771
     51 H           9.1800    0.7920   11.3730 H       1  LIG1        0.3711
@<TRIPOS>BOND
     1     1     2   ar
     2     2     3   ar
     3     3     4   ar
     4     4     5   ar
     5     5     6   ar
     6     6     1   ar
     7     6     7    1
     8     7     8    1
     9     7     9    1
    10     5    10   ar
    11    10    11   ar
    12    11    12   ar
    13    12    13    1
    14    12    14   ar
    15    14     4   ar
    16    11    15    1
    17    15    16    1
    18    15    17    1
    19    15    18    1
    20    18    19    1
    21    18    20    1
    22    20    21   ar
    23    21    22    1
    24    21    23   ar
    25    23    24   ar
    26    24    25    1
    27    24    26   ar
    28    26    27    1
    29    26    28   ar
    30    28    20   ar
    31    28    29    1
    32    29    30    1
    33    30    31    1
    34    30    32    1
    35    30    33    1
    36    33    34    1
    37    33    35    1
    38    33    36    1
    39    23    37    1
    40    37    38    1
    41    38    39    1
    42    38    40    1
    43    38    41    1
    44    41    42    1
    45    41    43    1
    46    41    44    1
    47    10    45    1
    48    45    46    1
    49    45    47    1
    50    45    48    1
    51     2    49    1
    52    49    50    1
    53    49    51    1
