@<TRIPOS>MOLECULE
24_3a
 48 50 0 0 0
SMALL
USER_CHARGES
****
From 3DB ct
@<TRIPOS>ATOM
      1 N          10.1290    2.5950   12.8280 N.ar    1  LIG1       -0.6619
      2 C          10.8020    1.9430   11.8920 C.ar    1  LIG1        0.7850
      3 N          12.0740    2.1630   11.6020 N.ar    1  LIG1       -0.6847
      4 C          12.7210    3.0940   12.2840 C.ar    1  LIG1        0.8201
      5 C          12.1400    3.8690   13.2940 C.ar    1  LIG1       -0.9214
      6 C          10.7850    3.5380   13.5220 C.ar    1  LIG1        0.9381
      7 N           9.9960    4.1590   14.4800 N.pl3   1  LIG1       -0.9673
      8 H          10.3150    4.0420   15.4390 H       1  LIG1        0.3645
      9 H           9.7850    5.1360   14.2930 H       1  LIG1        0.3619
     10 C          12.9730    4.8610   13.9460 C.ar    1  LIG1        0.4676
     11 C          14.3280    4.9750   13.5720 C.ar    1  LIG1       -0.3322
     12 C          14.7650    4.1420   12.5550 C.ar    1  LIG1        0.3780
     13 H          15.7960    4.1760   12.2060 H       1  LIG1        0.0780
     14 N          13.9920    3.2330   11.9220 N.ar    1  LIG1       -0.5763
     15 C          15.3250    5.9310   14.1940 C.3     1  LIG1       -0.1152
     16 H          15.7220    5.4510   15.0980 H       1  LIG1        0.1080
     17 H          14.8220    6.8460   14.5340 H       1  LIG1        0.1042
     18 N          16.3990    6.2860   13.2530 N.pl3   1  LIG1       -0.1686
     19 C          16.0810    7.1220   12.1670 C.ar    1  LIG1        0.2195
     20 C          14.7870    7.6550   12.0190 C.ar    1  LIG1       -0.4088
     21 H          14.0130    7.4170   12.7460 H       1  LIG1        0.1475
     22 C          14.4450    8.4750   10.9370 C.ar    1  LIG1        0.3863
     23 C          15.4080    8.7720    9.9790 C.ar    1  LIG1       -0.2962
     24 H          15.1930    9.4030    9.1210 H       1  LIG1        0.1325
     25 C          16.7030    8.2570   10.1010 C.ar    1  LIG1       -0.1226
     26 H          17.4210    8.5220    9.3280 H       1  LIG1        0.1447
     27 C          17.0500    7.4380   11.1820 C.ar    1  LIG1        0.0380
     28 O          18.3090    6.9220   11.3830 O.3     1  LIG1       -0.2684
     29 C          19.3200    7.2670   10.4410 C.3     1  LIG1       -0.0065
     30 H          20.2470    6.7750   10.7530 H       1  LIG1        0.0561
     31 H          19.5020    8.3470   10.4360 H       1  LIG1        0.0415
     32 H          19.0690    6.8990    9.4410 H       1  LIG1        0.0529
     33 O          13.1480    8.9100   10.9340 O.3     1  LIG1       -0.2954
     34 C          12.7550    9.7540    9.8530 C.3     1  LIG1        0.0128
     35 H          11.7020   10.0110    9.9980 H       1  LIG1        0.0682
     36 H          12.8430    9.2310    8.8950 H       1  LIG1        0.0424
     37 H          13.3300   10.6850    9.8520 H       1  LIG1        0.0380
     38 C          17.4060    5.2660   12.9480 C.3     1  LIG1       -0.0843
     39 H          18.2650    5.6760   12.4070 H       1  LIG1        0.0596
     40 H          16.9670    4.4670   12.3390 H       1  LIG1        0.0792
     41 H          17.7990    4.8160   13.8650 H       1  LIG1        0.0582
     42 C          12.4110    5.7570   15.0230 C.3     1  LIG1       -0.1964
     43 H          12.1640    5.1710   15.9130 H       1  LIG1        0.0543
     44 H          11.5300    6.2890   14.6550 H       1  LIG1        0.0674
     45 H          13.1010    6.5410   15.3390 H       1  LIG1        0.0471
     46 N          10.1430    0.9860   11.1840 N.pl3   1  LIG1       -0.7910
     47 H          10.6270    0.4700   10.4640 H       1  LIG1        0.3736
     48 H           9.1720    0.7960   11.3840 H       1  LIG1        0.3720
@<TRIPOS>BOND
     1     1     2   ar
     2     2     3   ar
     3     3     4   ar
     4     4     5   ar
     5     5     6   ar
     6     6     1   ar
     7     6     7    1
     8     7     8    1
     9     7     9    1
    10     5    10   ar
    11    10    11   ar
    12    11    12   ar
    13    12    13    1
    14    12    14   ar
    15    14     4   ar
    16    11    15    1
    17    15    16    1
    18    15    17    1
    19    15    18    1
    20    18    19    1
    21    19    20   ar
    22    20    21    1
    23    20    22   ar
    24    22    23   ar
    25    23    24    1
    26    23    25   ar
    27    25    26    1
    28    25    27   ar
    29    27    19   ar
    30    27    28    1
    31    28    29    1
    32    29    30    1
    33    29    31    1
    34    29    32    1
    35    22    33    1
    36    33    34    1
    37    34    35    1
    38    34    36    1
    39    34    37    1
    40    18    38    1
    41    38    39    1
    42    38    40    1
    43    38    41    1
    44    10    42    1
    45    42    43    1
    46    42    44    1
    47    42    45    1
    48     2    46    1
    49    46    47    1
    50    46    48    1
