@<TRIPOS>MOLECULE
25_13
 49 51 0 0 0
SMALL
USER_CHARGES
****
From 3DB ct
@<TRIPOS>ATOM
      1 N          10.1940    2.7410   12.8650 N.ar    1  LIG1       -0.6805
      2 C          10.7910    2.0610   11.8890 C.ar    1  LIG1        0.7713
      3 N          12.0720    2.1870   11.5550 N.ar    1  LIG1       -0.6832
      4 C          12.8090    3.0540   12.2320 C.ar    1  LIG1        0.7471
      5 C          12.2960    3.8160   13.2740 C.ar    1  LIG1       -0.6637
      6 C          10.9470    3.6010   13.5630 C.ar    1  LIG1        0.7461
      7 N          10.2720    4.3210   14.5320 N.pl3   1  LIG1       -0.7599
      8 H          10.7500    4.5510   15.3980 H       1  LIG1        0.3350
      9 H           9.2890    4.0900   14.6410 H       1  LIG1        0.3250
     10 C          13.1560    4.7340   13.9320 C.ar    1  LIG1        0.0231
     11 H          12.7660    5.3430   14.7460 H       1  LIG1        0.0929
     12 C          14.4870    4.8850   13.5480 C.ar    1  LIG1        0.0746
     13 C          14.8840    4.0620   12.5040 C.ar    1  LIG1        0.2960
     14 H          15.9030    4.0820   12.1250 H       1  LIG1        0.0724
     15 N          14.0830    3.1710   11.8550 N.ar    1  LIG1       -0.5392
     16 N          15.2860    5.7890   14.2060 N.pl3   1  LIG1       -0.6729
     17 H          15.0060    6.0750   15.1430 H       1  LIG1        0.3240
     18 C          16.4210    6.5110   13.6370 C.3     1  LIG1        0.3695
     19 H          16.7800    7.2720   14.3420 H       1  LIG1        0.0239
     20 C          15.9510    7.2330   12.3790 C.ar    1  LIG1       -0.1167
     21 C          16.8360    7.5470   11.3340 C.ar    1  LIG1       -0.2175
     22 H          17.8840    7.2630   11.4090 H       1  LIG1        0.1493
     23 C          16.3740    8.1950   10.1900 C.ar    1  LIG1        0.2371
     24 C          15.0100    8.4800   10.0530 C.ar    1  LIG1       -0.0605
     25 C          14.1090    8.2010   11.0910 C.ar    1  LIG1        0.2417
     26 C          14.5890    7.5700   12.2440 C.ar    1  LIG1       -0.2010
     27 H          13.9160    7.3170   13.0580 H       1  LIG1        0.1454
     28 O          12.8040    8.5690   10.8830 O.3     1  LIG1       -0.2921
     29 C          12.5030    9.2280    9.6520 C.3     1  LIG1        0.0508
     30 H          11.4240    9.4100    9.6270 H       1  LIG1        0.0450
     31 H          12.7530    8.5970    8.7910 H       1  LIG1        0.0471
     32 H          13.0070   10.1980    9.5950 H       1  LIG1        0.0427
     33 O          14.5610    9.1040    8.9110 O.3     1  LIG1       -0.2038
     34 C          15.6570    9.3000    8.0110 C.3     1  LIG1       -0.0734
     35 H          15.2790    9.8380    7.1360 H       1  LIG1        0.0740
     36 H          16.0640    8.3400    7.6720 H       1  LIG1        0.0644
     37 H          16.4510    9.9060    8.4640 H       1  LIG1        0.0678
     38 O          17.2140    8.5050    9.1510 O.3     1  LIG1       -0.2267
     39 C          18.5690    8.1310    9.4240 C.3     1  LIG1       -0.0375
     40 H          19.2060    8.6520    8.7020 H       1  LIG1        0.0811
     41 H          18.7120    7.0550    9.2880 H       1  LIG1        0.0470
     42 H          18.8770    8.4400   10.4290 H       1  LIG1        0.0504
     43 C          17.5780    5.5490   13.3510 C.3     1  LIG1       -0.2423
     44 H          18.3930    6.0620   12.8280 H       1  LIG1        0.0525
     45 H          17.2620    4.6980   12.7390 H       1  LIG1        0.0628
     46 H          17.9810    5.1400   14.2840 H       1  LIG1        0.0692
     47 N          10.0400    1.1780   11.1750 N.pl3   1  LIG1       -0.7990
     48 H          10.4600    0.6590   10.4180 H       1  LIG1        0.3739
     49 H           9.0640    1.0510   11.4000 H       1  LIG1        0.3667
@<TRIPOS>BOND
     1     1     2   ar
     2     2     3   ar
     3     3     4   ar
     4     4     5   ar
     5     5     6   ar
     6     6     1   ar
     7     6     7    1
     8     7     8    1
     9     7     9    1
    10     5    10   ar
    11    10    11    1
    12    10    12   ar
    13    12    13   ar
    14    13    14    1
    15    13    15   ar
    16    15     4   ar
    17    12    16    1
    18    16    17    1
    19    16    18    1
    20    18    19    1
    21    18    20    1
    22    20    21   ar
    23    21    22    1
    24    21    23   ar
    25    23    24   ar
    26    24    25   ar
    27    25    26   ar
    28    26    27    1
    29    26    20   ar
    30    25    28    1
    31    28    29    1
    32    29    30    1
    33    29    31    1
    34    29    32    1
    35    24    33    1
    36    33    34    1
    37    34    35    1
    38    34    36    1
    39    34    37    1
    40    23    38    1
    41    38    39    1
    42    39    40    1
    43    39    41    1
    44    39    42    1
    45    18    43    1
    46    43    44    1
    47    43    45    1
    48    43    46    1
    49     2    47    1
    50    47    48    1
    51    47    49    1
