@<TRIPOS>MOLECULE
25_25
 44 47 0 0 0
SMALL
USER_CHARGES
****
From 3DB ct
@<TRIPOS>ATOM
      1 N          10.1990    2.7460   12.8450 N.ar    1  LIG1       -0.6787
      2 C          10.8090    2.0760   11.8700 C.ar    1  LIG1        0.7641
      3 N          12.0930    2.2070   11.5530 N.ar    1  LIG1       -0.6753
      4 C          12.8190    3.0710   12.2460 C.ar    1  LIG1        0.7261
      5 C          12.2890    3.8270   13.2860 C.ar    1  LIG1       -0.6308
      6 C          10.9400    3.6000   13.5610 C.ar    1  LIG1        0.7383
      7 N          10.2580    4.2920   14.5460 N.pl3   1  LIG1       -0.7604
      8 H          10.7320    4.4790   15.4240 H       1  LIG1        0.3369
      9 H           9.2780    4.0450   14.6440 H       1  LIG1        0.3235
     10 C          13.1320    4.7450   13.9680 C.ar    1  LIG1       -0.0353
     11 H          12.7100    5.3430   14.7720 H       1  LIG1        0.0994
     12 C          14.4670    4.8890   13.6160 C.ar    1  LIG1        0.1714
     13 C          14.8840    4.0720   12.5710 C.ar    1  LIG1        0.2526
     14 H          15.9180    4.1050   12.2280 H       1  LIG1        0.0805
     15 N          14.1000    3.1890   11.8940 N.ar    1  LIG1       -0.5248
     16 N          15.3460    5.7420   14.2420 N.pl3   1  LIG1       -0.7328
     17 H          15.2900    5.8500   15.2530 H       1  LIG1        0.3648
     18 C          16.4340    6.4440   13.5770 C.3     1  LIG1        0.2187
     19 H          17.2220    5.7470   13.2650 H       1  LIG1        0.0514
     20 H          16.9170    7.1310   14.2800 H       1  LIG1        0.0370
     21 C          15.9160    7.1820   12.3510 C.ar    1  LIG1       -0.2240
     22 C          14.5440    7.5180   12.2680 C.ar    1  LIG1        0.2628
     23 C          14.0650    8.2060   11.1540 C.ar    1  LIG1       -0.2371
     24 H          13.0200    8.4900   11.0540 H       1  LIG1        0.1456
     25 C          14.9270    8.5590   10.1160 C.ar    1  LIG1       -0.1411
     26 H          14.5170    9.0970    9.2610 H       1  LIG1        0.1309
     27 C          16.2840    8.2280   10.1620 C.ar    1  LIG1        0.0937
     28 C          16.8020    7.5270   11.2790 C.ar    1  LIG1        0.0669
     29 C          18.1820    7.2090   11.2550 C.ar    1  LIG1       -0.1619
     30 H          18.6430    6.6560   12.0720 H       1  LIG1        0.1157
     31 C          19.0090    7.5740   10.1880 C.ar    1  LIG1       -0.0688
     32 H          20.0650    7.3110   10.2050 H       1  LIG1        0.1038
     33 C          18.4800    8.2670    9.1090 C.ar    1  LIG1       -0.0910
     34 H          19.1190    8.5530    8.2750 H       1  LIG1        0.1049
     35 C          17.1260    8.5900    9.0960 C.ar    1  LIG1       -0.1734
     36 H          16.7280    9.1310    8.2370 H       1  LIG1        0.1199
     37 O          13.7560    7.1350   13.3250 O.3     1  LIG1       -0.2728
     38 C          12.3670    7.4510   13.2650 C.3     1  LIG1       -0.0201
     39 H          11.8950    7.0470   14.1660 H       1  LIG1        0.0642
     40 H          11.8910    6.9780   12.3990 H       1  LIG1        0.0639
     41 H          12.2100    8.5350   13.2640 H       1  LIG1        0.0483
     42 N          10.0640    1.1950   11.1480 N.pl3   1  LIG1       -0.7937
     43 H          10.4920    0.6680   10.4010 H       1  LIG1        0.3720
     44 H           9.0860    1.0740   11.3640 H       1  LIG1        0.3648
@<TRIPOS>BOND
     1     1     2   ar
     2     2     3   ar
     3     3     4   ar
     4     4     5   ar
     5     5     6   ar
     6     6     1   ar
     7     6     7    1
     8     7     8    1
     9     7     9    1
    10     5    10   ar
    11    10    11    1
    12    10    12   ar
    13    12    13   ar
    14    13    14    1
    15    13    15   ar
    16    15     4   ar
    17    12    16    1
    18    16    17    1
    19    16    18    1
    20    18    19    1
    21    18    20    1
    22    18    21    1
    23    21    22   ar
    24    22    23   ar
    25    23    24    1
    26    23    25   ar
    27    25    26    1
    28    25    27   ar
    29    27    28   ar
    30    28    21   ar
    31    28    29   ar
    32    29    30    1
    33    29    31   ar
    34    31    32    1
    35    31    33   ar
    36    33    34    1
    37    33    35   ar
    38    35    36    1
    39    35    27   ar
    40    22    37    1
    41    37    38    1
    42    38    39    1
    43    38    40    1
    44    38    41    1
    45     2    42    1
    46    42    43    1
    47    42    44    1
