@<TRIPOS>MOLECULE
25_20
 45 47 0 0 0
SMALL
USER_CHARGES
****
From 3DB ct
@<TRIPOS>ATOM
      1 N          10.1820    2.7300   12.8290 N.ar    1  LIG1       -0.6763
      2 C          10.7900    2.0620   11.8520 C.ar    1  LIG1        0.7823
      3 N          12.0730    2.1920   11.5330 N.ar    1  LIG1       -0.7045
      4 C          12.8010    3.0530   12.2280 C.ar    1  LIG1        0.7949
      5 C          12.2760    3.8060   13.2710 C.ar    1  LIG1       -0.7107
      6 C          10.9270    3.5810   13.5470 C.ar    1  LIG1        0.7346
      7 N          10.2460    4.2710   14.5340 N.pl3   1  LIG1       -0.7587
      8 H          10.7190    4.4570   15.4120 H       1  LIG1        0.3362
      9 H           9.2650    4.0240   14.6320 H       1  LIG1        0.3252
     10 C          13.1270    4.7170   13.9560 C.ar    1  LIG1        0.1551
     11 H          12.7040    5.2830   14.7820 H       1  LIG1        0.0699
     12 C          14.4710    4.8660   13.6170 C.ar    1  LIG1       -0.1318
     13 C          14.8710    4.0460   12.5620 C.ar    1  LIG1        0.3100
     14 H          15.8950    4.0740   12.1910 H       1  LIG1        0.0702
     15 N          14.0810    3.1680   11.8800 N.ar    1  LIG1       -0.5448
     16 N          15.3290    5.7360   14.2690 N.pl3   1  LIG1       -0.2532
     17 C          16.4010    6.4650   13.5700 C.3     1  LIG1        0.0514
     18 H          17.1960    5.7560   13.3090 H       1  LIG1        0.0303
     19 H          16.8590    7.2400   14.1940 H       1  LIG1        0.0635
     20 C          15.8900    7.1840   12.3350 C.ar    1  LIG1        0.1373
     21 C          16.7720    7.5290   11.3000 C.ar    1  LIG1       -0.3805
     22 H          17.8270    7.2660   11.3760 H       1  LIG1        0.1617
     23 C          16.3180    8.2080   10.1670 C.ar    1  LIG1        0.3721
     24 C          14.9690    8.5490   10.0690 C.ar    1  LIG1       -0.4128
     25 H          14.5790    9.0800    9.2040 H       1  LIG1        0.1535
     26 C          14.0730    8.2170   11.0930 C.ar    1  LIG1        0.4114
     27 C          14.5360    7.5420   12.2230 C.ar    1  LIG1       -0.3678
     28 H          13.8680    7.2750   13.0390 H       1  LIG1        0.1563
     29 O          12.7800    8.6100   10.8710 O.3     1  LIG1       -0.2993
     30 C          12.5050    9.2400    9.6210 C.3     1  LIG1        0.0257
     31 H          11.4500    9.5300    9.6180 H       1  LIG1        0.0625
     32 H          12.6630    8.5460    8.7890 H       1  LIG1        0.0463
     33 H          13.1020   10.1510    9.4990 H       1  LIG1        0.0410
     34 O          17.2850    8.4780    9.2370 O.3     1  LIG1       -0.2873
     35 C          18.6130    8.0620    9.5530 C.3     1  LIG1        0.0357
     36 H          19.2620    8.3680    8.7260 H       1  LIG1        0.0627
     37 H          18.6730    6.9720    9.6390 H       1  LIG1        0.0401
     38 H          18.9740    8.5550   10.4610 H       1  LIG1        0.0302
     39 C          15.0820    6.0690   15.6760 C.3     1  LIG1       -0.0101
     40 H          15.5960    6.9910   15.9690 H       1  LIG1        0.0649
     41 H          15.4350    5.2630   16.3280 H       1  LIG1        0.0274
     42 H          14.0150    6.2390   15.8590 H       1  LIG1        0.0458
     43 N          10.0430    1.1830   11.1290 N.pl3   1  LIG1       -0.8048
     44 H          10.4700    0.6550   10.3820 H       1  LIG1        0.3787
     45 H           9.0640    1.0630   11.3460 H       1  LIG1        0.3656
@<TRIPOS>BOND
     1     1     2   ar
     2     2     3   ar
     3     3     4   ar
     4     4     5   ar
     5     5     6   ar
     6     6     1   ar
     7     6     7    1
     8     7     8    1
     9     7     9    1
    10     5    10   ar
    11    10    11    1
    12    10    12   ar
    13    12    13   ar
    14    13    14    1
    15    13    15   ar
    16    15     4   ar
    17    12    16    1
    18    16    17    1
    19    17    18    1
    20    17    19    1
    21    17    20    1
    22    20    21   ar
    23    21    22    1
    24    21    23   ar
    25    23    24   ar
    26    24    25    1
    27    24    26   ar
    28    26    27   ar
    29    27    28    1
    30    27    20   ar
    31    26    29    1
    32    29    30    1
    33    30    31    1
    34    30    32    1
    35    30    33    1
    36    23    34    1
    37    34    35    1
    38    35    36    1
    39    35    37    1
    40    35    38    1
    41    16    39    1
    42    39    40    1
    43    39    41    1
    44    39    42    1
    45     2    43    1
    46    43    44    1
    47    43    45    1
