@<TRIPOS>MOLECULE
27_16
 40 42 0 0 0
SMALL
USER_CHARGES
****
From 3DB ct
@<TRIPOS>ATOM
      1 N          10.1170    2.6490   12.7890 N.ar    1  LIG1       -0.7187
      2 C          10.7970    1.9600   11.8850 C.ar    1  LIG1        0.8213
      3 N          12.0770    2.1570   11.6080 N.ar    1  LIG1       -0.7085
      4 C          12.7350    3.0700   12.3040 C.ar    1  LIG1        0.8415
      5 C          12.1600    3.8380   13.3220 C.ar    1  LIG1       -0.8841
      6 C          10.7780    3.5960   13.4700 C.ar    1  LIG1        0.8251
      7 N           9.9700    4.3010   14.3430 N.pl3   1  LIG1       -0.7514
      8 H           9.0010    3.9980   14.3500 H       1  LIG1        0.3207
      9 H          10.0750    5.3090   14.3680 H       1  LIG1        0.3220
     10 C          13.0180    4.7440   14.0600 C.ar    1  LIG1        0.5102
     11 C          14.3550    4.9020   13.6500 C.ar    1  LIG1       -0.4116
     12 C          14.7800    4.1070   12.5960 C.ar    1  LIG1        0.3883
     13 H          15.8040    4.1750   12.2280 H       1  LIG1        0.0814
     14 N          14.0090    3.2040   11.9510 N.ar    1  LIG1       -0.5871
     15 C          15.3540    5.8760   14.2420 C.3     1  LIG1       -0.0367
     16 H          15.8660    5.4840   15.1240 H       1  LIG1        0.1035
     17 H          14.7510    6.7130   14.6130 H       1  LIG1        0.0826
     18 N          16.3570    6.3030   13.2500 N.pl3   1  LIG1       -0.2907
     19 C          16.0390    7.1200   12.1730 C.ar    1  LIG1        0.3686
     20 C          16.9890    7.4310   11.1800 C.ar    1  LIG1       -0.3499
     21 H          17.9970    7.0190   11.2240 H       1  LIG1        0.1286
     22 C          16.6840    8.2540   10.0870 C.ar    1  LIG1        0.2378
     23 H          17.4500    8.4610    9.3440 H       1  LIG1        0.0492
     24 C          15.4100    8.7900    9.9620 C.ar    1  LIG1       -0.5139
     25 C          14.4470    8.5110   10.9210 C.ar    1  LIG1        0.2469
     26 H          13.4460    8.9300   10.8420 H       1  LIG1        0.0461
     27 C          14.7650    7.6890   12.0110 C.ar    1  LIG1       -0.3601
     28 H          13.9800    7.5350   12.7480 H       1  LIG1        0.1287
     29 CL         15.0280    9.8050    8.6270 Cl      1  LIG1        0.0730
     30 C          17.7550    5.9310   13.4840 C.3     1  LIG1       -0.0761
     31 H          18.4190    6.7940   13.3610 H       1  LIG1        0.0521
     32 H          18.0630    5.1370   12.7950 H       1  LIG1        0.0717
     33 H          17.9120    5.5640   14.5030 H       1  LIG1        0.0793
     34 C          12.4880    5.5140   15.2450 C.3     1  LIG1       -0.2203
     35 H          11.8430    4.8840   15.8650 H       1  LIG1        0.0737
     36 H          11.9450    6.4030   14.9090 H       1  LIG1        0.0657
     37 H          13.2770    5.8350   15.9290 H       1  LIG1        0.0487
     38 N          10.1340    0.9950   11.1920 N.pl3   1  LIG1       -0.8156
     39 H          10.6180    0.4520   10.4920 H       1  LIG1        0.3820
     40 H           9.1580    0.8240   11.3870 H       1  LIG1        0.3759
@<TRIPOS>BOND
     1     1     2   ar
     2     2     3   ar
     3     3     4   ar
     4     4     5   ar
     5     5     6   ar
     6     6     1   ar
     7     6     7    1
     8     7     8    1
     9     7     9    1
    10     5    10   ar
    11    10    11   ar
    12    11    12   ar
    13    12    13    1
    14    12    14   ar
    15    14     4   ar
    16    11    15    1
    17    15    16    1
    18    15    17    1
    19    15    18    1
    20    18    19    1
    21    19    20   ar
    22    20    21    1
    23    20    22   ar
    24    22    23    1
    25    22    24   ar
    26    24    25   ar
    27    25    26    1
    28    25    27   ar
    29    27    28    1
    30    27    19   ar
    31    24    29    1
    32    18    30    1
    33    30    31    1
    34    30    32    1
    35    30    33    1
    36    10    34    1
    37    34    35    1
    38    34    36    1
    39    34    37    1
    40     2    38    1
    41    38    39    1
    42    38    40    1
