@<TRIPOS>MOLECULE
27_6
 41 43 0 0 0
SMALL
USER_CHARGES
****
From 3DB ct
@<TRIPOS>ATOM
      1 N          10.1230    2.6230   12.8000 N.ar    1  LIG1       -0.7121
      2 C          10.8000    1.9670   11.8700 C.ar    1  LIG1        0.8053
      3 N          12.0810    2.1680   11.6040 N.ar    1  LIG1       -0.7014
      4 C          12.7320    3.0800   12.3060 C.ar    1  LIG1        0.8353
      5 C          12.1490    3.8510   13.3180 C.ar    1  LIG1       -0.8543
      6 C          10.7820    3.5480   13.5150 C.ar    1  LIG1        0.8123
      7 N           9.9880    4.1740   14.4650 N.pl3   1  LIG1       -0.7498
      8 H          10.2650    4.0080   15.4300 H       1  LIG1        0.3198
      9 H           9.8330    5.1660   14.3060 H       1  LIG1        0.3216
     10 C          12.9900    4.8150   14.0020 C.ar    1  LIG1        0.4710
     11 C          14.3460    4.9260   13.6340 C.ar    1  LIG1       -0.4358
     12 C          14.7850    4.1030   12.6100 C.ar    1  LIG1        0.4007
     13 H          15.8160    4.1430   12.2610 H       1  LIG1        0.0876
     14 N          14.0100    3.2050   11.9630 N.ar    1  LIG1       -0.5959
     15 C          15.3380    5.8830   14.2590 C.3     1  LIG1        0.1726
     16 H          15.8380    5.3880   15.1010 H       1  LIG1        0.0552
     17 H          14.7920    6.7400   14.6700 H       1  LIG1        0.0475
     18 N          16.3220    6.2900   13.2730 N.pl3   1  LIG1       -0.5561
     19 H          17.2700    5.9470   13.4140 H       1  LIG1        0.3102
     20 C          16.0900    7.0980   12.1690 C.ar    1  LIG1        0.1311
     21 C          14.7870    7.6180   12.0350 C.ar    1  LIG1       -0.1370
     22 H          14.0250    7.3740   12.7750 H       1  LIG1        0.1071
     23 C          14.4270    8.4500   10.9730 C.ar    1  LIG1       -0.1243
     24 H          13.4110    8.8330   10.9020 H       1  LIG1        0.1138
     25 C          15.3690    8.7840   10.0130 C.ar    1  LIG1       -0.1426
     26 H          15.0970    9.4330    9.1820 H       1  LIG1        0.1148
     27 C          16.6690    8.2870   10.1150 C.ar    1  LIG1       -0.1719
     28 H          17.3710    8.5760    9.3380 H       1  LIG1        0.1208
     29 C          17.0410    7.4490   11.1800 C.ar    1  LIG1        0.1536
     30 O          18.3080    6.9350   11.3140 O.3     1  LIG1       -0.2662
     31 C          19.2960    7.3260   10.3630 C.3     1  LIG1       -0.0017
     32 H          20.2320    6.8280   10.6340 H       1  LIG1        0.0658
     33 H          19.4710    8.4060   10.4000 H       1  LIG1        0.0403
     34 H          19.0240    6.9970    9.3550 H       1  LIG1        0.0470
     35 C          12.4300    5.6930   15.0940 C.3     1  LIG1       -0.2045
     36 H          12.0880    5.0820   15.9340 H       1  LIG1        0.0710
     37 H          11.6130    6.3070   14.7060 H       1  LIG1        0.0649
     38 H          13.1580    6.3960   15.5060 H       1  LIG1        0.0409
     39 N          10.1370    1.0280   11.1420 N.pl3   1  LIG1       -0.8078
     40 H          10.6240    0.5100   10.4250 H       1  LIG1        0.3783
     41 H           9.1590    0.8540   11.3230 H       1  LIG1        0.3728
@<TRIPOS>BOND
     1     1     2   ar
     2     2     3   ar
     3     3     4   ar
     4     4     5   ar
     5     5     6   ar
     6     6     1   ar
     7     6     7    1
     8     7     8    1
     9     7     9    1
    10     5    10   ar
    11    10    11   ar
    12    11    12   ar
    13    12    13    1
    14    12    14   ar
    15    14     4   ar
    16    11    15    1
    17    15    16    1
    18    15    17    1
    19    15    18    1
    20    18    19    1
    21    18    20    1
    22    20    21   ar
    23    21    22    1
    24    21    23   ar
    25    23    24    1
    26    23    25   ar
    27    25    26    1
    28    25    27   ar
    29    27    28    1
    30    27    29   ar
    31    29    20   ar
    32    29    30    1
    33    30    31    1
    34    31    32    1
    35    31    33    1
    36    31    34    1
    37    10    35    1
    38    35    36    1
    39    35    37    1
    40    35    38    1
    41     2    39    1
    42    39    40    1
    43    39    41    1
