@<TRIPOS>MOLECULE
27_9
 37 39 0 0 0
SMALL
USER_CHARGES
****
From 3DB ct
@<TRIPOS>ATOM
      1 N          10.1320    2.6230   12.8160 N.ar    1  LIG1       -0.7061
      2 C          10.8010    1.9650   11.8810 C.ar    1  LIG1        0.8001
      3 N          12.0790    2.1670   11.6020 N.ar    1  LIG1       -0.6996
      4 C          12.7360    3.0820   12.2940 C.ar    1  LIG1        0.8303
      5 C          12.1610    3.8580   13.3080 C.ar    1  LIG1       -0.8275
      6 C          10.7970    3.5510   13.5210 C.ar    1  LIG1        0.7995
      7 N          10.0110    4.1800   14.4750 N.pl3   1  LIG1       -0.7477
      8 H          10.3080    4.0360   15.4370 H       1  LIG1        0.3205
      9 H           9.8350    5.1660   14.3020 H       1  LIG1        0.3210
     10 C          13.0060    4.8280   13.9780 C.ar    1  LIG1        0.4495
     11 C          14.3620    4.9270   13.6080 C.ar    1  LIG1       -0.4745
     12 C          14.7910    4.1040   12.5800 C.ar    1  LIG1        0.3991
     13 H          15.8190    4.1450   12.2230 H       1  LIG1        0.0864
     14 N          14.0100    3.2060   11.9400 N.ar    1  LIG1       -0.5893
     15 C          15.3640    5.8770   14.2220 C.3     1  LIG1        0.3776
     16 H          15.8100    5.4020   15.1020 H       1  LIG1        0.0293
     17 H          14.8570    6.7710   14.6040 H       1  LIG1        0.0063
     18 N          16.3730    6.2290   13.2300 N.pl3   1  LIG1       -0.9036
     19 H          16.9650    5.4500   12.9410 H       1  LIG1        0.3847
     20 C          16.0160    7.1120   12.2070 C.ar    1  LIG1        0.7488
     21 C          14.6940    7.5880   12.1840 C.ar    1  LIG1       -0.3928
     22 H          13.9740    7.2350   12.9210 H       1  LIG1        0.1438
     23 C          14.2730    8.5270   11.2370 C.ar    1  LIG1        0.0402
     24 H          13.2430    8.8800   11.2430 H       1  LIG1        0.0980
     25 C          15.1710    9.0150   10.2930 C.ar    1  LIG1       -0.2770
     26 H          14.8460    9.7450    9.5550 H       1  LIG1        0.1269
     27 C          16.4880    8.5590   10.2930 C.ar    1  LIG1        0.2094
     28 H          17.1810    8.9350    9.5430 H       1  LIG1        0.0603
     29 C          16.9100    7.6180   11.2410 C.ar    1  LIG1       -0.6026
     30 CL         18.5410    7.0460   11.1110 Cl      1  LIG1        0.0675
     31 C          12.4510    5.7200   15.0620 C.3     1  LIG1       -0.1987
     32 H          12.1500    5.1220   15.9280 H       1  LIG1        0.0738
     33 H          11.6060    6.3000   14.6810 H       1  LIG1        0.0644
     34 H          13.1660    6.4590   15.4280 H       1  LIG1        0.0337
     35 N          10.1320    1.0230   11.1620 N.pl3   1  LIG1       -0.8021
     36 H          10.6120    0.5040   10.4420 H       1  LIG1        0.3787
     37 H           9.1560    0.8500   11.3530 H       1  LIG1        0.3717
@<TRIPOS>BOND
     1     1     2   ar
     2     2     3   ar
     3     3     4   ar
     4     4     5   ar
     5     5     6   ar
     6     6     1   ar
     7     6     7    1
     8     7     8    1
     9     7     9    1
    10     5    10   ar
    11    10    11   ar
    12    11    12   ar
    13    12    13    1
    14    12    14   ar
    15    14     4   ar
    16    11    15    1
    17    15    16    1
    18    15    17    1
    19    15    18    1
    20    18    19    1
    21    18    20    1
    22    20    21   ar
    23    21    22    1
    24    21    23   ar
    25    23    24    1
    26    23    25   ar
    27    25    26    1
    28    25    27   ar
    29    27    28    1
    30    27    29   ar
    31    29    20   ar
    32    29    30    1
    33    10    31    1
    34    31    32    1
    35    31    33    1
    36    31    34    1
    37     2    35    1
    38    35    36    1
    39    35    37    1
