@<TRIPOS>MOLECULE
28_5
 48 50 0 0 0
SMALL
USER_CHARGES
****
From 3DB ct
@<TRIPOS>ATOM
      1 N          10.1630    2.6360   12.9070 N.ar    1  LIG1       -0.7055
      2 C          10.7620    1.9830   11.9150 C.ar    1  LIG1        0.8126
      3 N          12.0240    2.1680   11.5380 N.ar    1  LIG1       -0.7125
      4 C          12.7490    3.0510   12.2080 C.ar    1  LIG1        0.8453
      5 C          12.2320    3.7850   13.2720 C.ar    1  LIG1       -0.8039
      6 C          10.8880    3.5480   13.5660 C.ar    1  LIG1        0.8047
      7 N          10.2330    4.1910   14.6020 N.pl3   1  LIG1       -0.7799
      8 H          10.4250    5.1750   14.7580 H       1  LIG1        0.3433
      9 H           9.2570    3.9320   14.7190 H       1  LIG1        0.3325
     10 C          13.0830    4.6860   13.9580 C.ar    1  LIG1        0.2520
     11 H          12.7010    5.2560   14.8030 H       1  LIG1        0.0849
     12 C          14.4110    4.8380   13.5640 C.ar    1  LIG1       -0.1502
     13 C          14.8170    4.0810   12.4790 C.ar    1  LIG1        0.3155
     14 H          15.8330    4.1490   12.0930 H       1  LIG1        0.0954
     15 N          14.0180    3.2050   11.8170 N.ar    1  LIG1       -0.5765
     16 C          15.3410    5.7990   14.2650 C.3     1  LIG1       -0.4068
     17 H          15.8640    5.2710   15.0750 H       1  LIG1        0.1519
     18 H          14.7420    6.5650   14.7580 H       1  LIG1        0.1733
     19 N          16.3670    6.3450   13.3660 N.am    1  LIG1       -0.1210
     20 C          16.0100    7.1560   12.2300 C.ar    1  LIG1        0.2001
     21 C          16.9490    7.4430   11.2260 C.ar    1  LIG1       -0.3665
     22 H          17.9570    7.0380   11.2650 H       1  LIG1        0.1930
     23 C          16.6100    8.2040   10.1010 C.ar    1  LIG1        0.2946
     24 C          15.3320    8.7550    9.9950 C.ar    1  LIG1       -0.1538
     25 C          14.3640    8.4730   10.9670 C.ar    1  LIG1        0.3992
     26 C          14.7110    7.6760   12.0700 C.ar    1  LIG1       -0.3828
     27 H          13.9660    7.5090   12.8380 H       1  LIG1        0.1330
     28 O          13.1280    9.0340   10.7600 O.3     1  LIG1       -0.2987
     29 C          12.9600    9.8490    9.6010 C.3     1  LIG1        0.0316
     30 H          11.9330   10.2260    9.6070 H       1  LIG1        0.0499
     31 H          13.0930    9.2610    8.6870 H       1  LIG1        0.0496
     32 H          13.6350   10.7100    9.6250 H       1  LIG1        0.0544
     33 O          14.9970    9.5460    8.9230 O.3     1  LIG1       -0.2466
     34 C          16.1090    9.6450    8.0260 C.3     1  LIG1        0.0567
     35 H          15.8290   10.3310    7.2210 H       1  LIG1        0.0316
     36 H          16.3400    8.6730    7.5770 H       1  LIG1        0.0396
     37 H          16.9930   10.0530    8.5270 H       1  LIG1        0.0353
     38 O          17.6110    8.4110    9.1870 O.3     1  LIG1       -0.2273
     39 C          18.8130    7.7100    9.5200 C.3     1  LIG1       -0.0385
     40 H          19.6500    8.2580    9.0750 H       1  LIG1        0.0760
     41 H          18.8050    6.7070    9.0840 H       1  LIG1        0.0597
     42 H          18.9810    7.6600   10.6030 H       1  LIG1        0.0575
     43 C          17.6900    6.0210   13.6800 C.2     1  LIG1        0.4123
     44 H          17.7530    5.3150   14.5270 H       1  LIG1        0.0522
     45 O          18.7240    6.4340   13.1590 O.2     1  LIG1       -0.4193
     46 N          10.0300    1.0580   11.2360 N.pl3   1  LIG1       -0.7985
     47 H          10.4560    0.5300   10.4890 H       1  LIG1        0.3796
     48 H           9.0790    0.8700   11.5180 H       1  LIG1        0.3711
@<TRIPOS>BOND
     1     1     2   ar
     2     2     3   ar
     3     3     4   ar
     4     4     5   ar
     5     5     6   ar
     6     6     1   ar
     7     6     7    1
     8     7     8    1
     9     7     9    1
    10     5    10   ar
    11    10    11    1
    12    10    12   ar
    13    12    13   ar
    14    13    14    1
    15    13    15   ar
    16    15     4   ar
    17    12    16    1
    18    16    17    1
    19    16    18    1
    20    16    19    1
    21    19    20    1
    22    20    21   ar
    23    21    22    1
    24    21    23   ar
    25    23    24   ar
    26    24    25   ar
    27    25    26   ar
    28    26    27    1
    29    26    20   ar
    30    25    28    1
    31    28    29    1
    32    29    30    1
    33    29    31    1
    34    29    32    1
    35    24    33    1
    36    33    34    1
    37    34    35    1
    38    34    36    1
    39    34    37    1
    40    23    38    1
    41    38    39    1
    42    39    40    1
    43    39    41    1
    44    39    42    1
    45    19    43   am
    46    43    44    1
    47    43    45    2
    48     2    46    1
    49    46    47    1
    50    46    48    1
