@<TRIPOS>MOLECULE
34_6
 33 35 0 0 0
SMALL
USER_CHARGES
****
From 3DB ct
@<TRIPOS>ATOM
      1 N          10.4950    2.7900   13.2670 N.ar    1  LIG1       -0.7201
      2 C          10.7170    2.0050   12.2010 C.ar    1  LIG1        0.8349
      3 N          11.8180    2.0020   11.4470 N.ar    1  LIG1       -0.6756
      4 C          12.7330    2.8930   11.8540 C.ar    1  LIG1        0.4594
      5 C          12.6280    3.7640   12.9290 C.ar    1  LIG1       -0.5782
      6 C          11.4340    3.6810   13.6620 C.ar    1  LIG1        0.7798
      7 N          11.1400    4.4390   14.7670 N.pl3   1  LIG1       -0.7768
      8 H          11.7750    5.1140   15.1660 H       1  LIG1        0.3296
      9 H          10.2500    4.2960   15.2300 H       1  LIG1        0.3341
     10 C          13.8460    4.5300   12.9720 C.ar    1  LIG1       -0.0255
     11 C          14.6360    4.0660   11.9290 C.ar    1  LIG1       -0.1364
     12 H          15.6300    4.3440   11.6000 H       1  LIG1        0.2147
     13 N          13.9490    3.0860   11.2590 N.ar    1  LIG1       -0.3256
     14 H          14.2830    2.5740   10.4530 H       1  LIG1        0.3193
     15 C          14.1830    5.6050   13.9700 C.3     1  LIG1        0.2942
     16 H          14.5270    5.1010   14.8810 H       1  LIG1        0.0124
     17 H          13.2580    6.1430   14.2110 H       1  LIG1        0.0390
     18 N          15.1810    6.5870   13.5630 N.pl3   1  LIG1       -0.8460
     19 H          15.9840    6.6920   14.1790 H       1  LIG1        0.3859
     20 C          15.2010    7.2340   12.3450 C.ar    1  LIG1        0.5193
     21 C          13.9830    7.5180   11.7130 C.ar    1  LIG1       -0.3427
     22 H          13.0430    7.2450   12.1920 H       1  LIG1        0.1535
     23 C          13.9340    8.1540   10.4670 C.ar    1  LIG1        0.1514
     24 H          12.9680    8.3600   10.0130 H       1  LIG1        0.0663
     25 C          15.1150    8.5130    9.8220 C.ar    1  LIG1       -0.2922
     26 C          16.3410    8.2310   10.4280 C.ar    1  LIG1       -0.1174
     27 C          16.3780    7.5930   11.6780 C.ar    1  LIG1       -0.1661
     28 H          17.3480    7.3850   12.1230 H       1  LIG1        0.0818
     29 CL         17.8510    8.6410    9.6880 Cl      1  LIG1        0.0554
     30 CL         14.9960    9.2960    8.2860 Cl      1  LIG1        0.0526
     31 N           9.7270    1.1320   11.8610 N.pl3   1  LIG1       -0.8507
     32 H           9.8510    0.5220   11.0670 H       1  LIG1        0.3861
     33 H           8.8790    1.1030   12.4060 H       1  LIG1        0.3839
@<TRIPOS>BOND
     1     1     2   ar
     2     2     3   ar
     3     3     4   ar
     4     4     5   ar
     5     5     6   ar
     6     6     1   ar
     7     6     7    1
     8     7     8    1
     9     7     9    1
    10     5    10   ar
    11    10    11   ar
    12    11    12    1
    13    11    13   ar
    14    13    14    1
    15    13     4   ar
    16    10    15    1
    17    15    16    1
    18    15    17    1
    19    15    18    1
    20    18    19    1
    21    18    20    1
    22    20    21   ar
    23    21    22    1
    24    21    23   ar
    25    23    24    1
    26    23    25   ar
    27    25    26   ar
    28    26    27   ar
    29    27    28    1
    30    27    20   ar
    31    26    29    1
    32    25    30    1
    33     2    31    1
    34    31    32    1
    35    31    33    1
