@<TRIPOS>MOLECULE
35_5
 40 42 0 0 0
SMALL
USER_CHARGES
****
From 3DB ct
@<TRIPOS>ATOM
      1 N          10.4380    2.7250   13.2200 N.ar    1  LIG1       -0.7234
      2 C          10.7570    1.9280   12.1900 C.ar    1  LIG1        0.8297
      3 N          11.8830    1.9860   11.4790 N.ar    1  LIG1       -0.6667
      4 C          12.7230    2.9400   11.9040 C.ar    1  LIG1        0.4238
      5 C          12.5290    3.8170   12.9640 C.ar    1  LIG1       -0.5869
      6 C          11.2970    3.6890   13.6300 C.ar    1  LIG1        0.8115
      7 N          10.8690    4.4790   14.6660 N.pl3   1  LIG1       -0.8228
      8 H          11.3710    5.2880   14.9970 H       1  LIG1        0.3600
      9 H           9.9430    4.3140   15.0440 H       1  LIG1        0.3392
     10 C          13.7170    4.6320   13.0530 C.ar    1  LIG1        0.1023
     11 C          14.5330    4.2430   11.9990 C.ar    1  LIG1       -0.1536
     12 H          15.5040    4.6020   11.6760 H       1  LIG1        0.2074
     13 N          13.9340    3.2080   11.3320 N.ar    1  LIG1       -0.3037
     14 H          14.3140    2.7200   10.5310 H       1  LIG1        0.3136
     15 C          14.0110    5.7190   14.0440 C.3     1  LIG1       -0.1618
     16 H          13.9370    5.3460   15.0650 H       1  LIG1        0.1196
     17 H          13.2850    6.5290   13.9170 H       1  LIG1        0.0627
     18 S          15.7070    6.3870   13.8400 S.3     1  LIG1       -0.0598
     19 C          15.4940    7.2310   12.2850 C.ar    1  LIG1       -0.1291
     20 C          14.2090    7.4480   11.7870 C.ar    1  LIG1       -0.0572
     21 H          13.3340    7.1230   12.3490 H       1  LIG1        0.1264
     22 C          14.0250    8.0870   10.5580 C.ar    1  LIG1       -0.2417
     23 H          13.0050    8.2340   10.2160 H       1  LIG1        0.1458
     24 C          15.1280    8.5110    9.8110 C.ar    1  LIG1        0.2552
     25 C          16.4290    8.2880   10.3070 C.ar    1  LIG1        0.0156
     26 C          16.6030    7.6480   11.5400 C.ar    1  LIG1       -0.0525
     27 H          17.5950    7.4570   11.9400 H       1  LIG1        0.1071
     28 O          17.4590    8.7330    9.5110 O.3     1  LIG1       -0.1850
     29 C          18.7880    8.5250    9.9820 C.3     1  LIG1       -0.0741
     30 H          19.4730    8.9230    9.2280 H       1  LIG1        0.0774
     31 H          19.0020    7.4570   10.0960 H       1  LIG1        0.0610
     32 H          18.9660    9.0710   10.9150 H       1  LIG1        0.0711
     33 O          15.0470    9.1440    8.5950 O.3     1  LIG1       -0.3004
     34 C          16.2730    9.5090    7.9650 C.3     1  LIG1        0.0865
     35 H          16.0270    9.9970    7.0180 H       1  LIG1        0.0429
     36 H          16.8780    8.6260    7.7390 H       1  LIG1        0.0235
     37 H          16.8290   10.2290    8.5760 H       1  LIG1        0.0216
     38 N           9.8460    0.9770   11.8360 N.pl3   1  LIG1       -0.8482
     39 H          10.0430    0.3620   11.0600 H       1  LIG1        0.3817
     40 H           8.9790    0.9020   12.3460 H       1  LIG1        0.3814
@<TRIPOS>BOND
     1     1     2   ar
     2     2     3   ar
     3     3     4   ar
     4     4     5   ar
     5     5     6   ar
     6     6     1   ar
     7     6     7    1
     8     7     8    1
     9     7     9    1
    10     5    10   ar
    11    10    11   ar
    12    11    12    1
    13    11    13   ar
    14    13    14    1
    15    13     4   ar
    16    10    15    1
    17    15    16    1
    18    15    17    1
    19    15    18    1
    20    18    19    1
    21    19    20   ar
    22    20    21    1
    23    20    22   ar
    24    22    23    1
    25    22    24   ar
    26    24    25   ar
    27    25    26   ar
    28    26    27    1
    29    26    19   ar
    30    25    28    1
    31    28    29    1
    32    29    30    1
    33    29    31    1
    34    29    32    1
    35    24    33    1
    36    33    34    1
    37    34    35    1
    38    34    36    1
    39    34    37    1
    40     2    38    1
    41    38    39    1
    42    38    40    1
