@<TRIPOS>MOLECULE
35_6
 32 34 0 0 0
SMALL
USER_CHARGES
****
From 3DB ct
@<TRIPOS>ATOM
      1 N          10.4320    2.7220   13.2190 N.ar    1  LIG1       -0.7030
      2 C          10.7370    1.9200   12.1880 C.ar    1  LIG1        0.8227
      3 N          11.8620    1.9600   11.4710 N.ar    1  LIG1       -0.6736
      4 C          12.7110    2.9110   11.8840 C.ar    1  LIG1        0.4580
      5 C          12.5240    3.7990   12.9320 C.ar    1  LIG1       -0.5483
      6 C          11.3040    3.6770   13.6180 C.ar    1  LIG1        0.7543
      7 N          10.9200    4.4640   14.6740 N.pl3   1  LIG1       -0.7923
      8 H          11.4820    5.2180   15.0390 H       1  LIG1        0.3578
      9 H          10.0140    4.2990   15.0970 H       1  LIG1        0.3326
     10 C          13.7030    4.6280   13.0060 C.ar    1  LIG1        0.0132
     11 C          14.5360    4.2000   11.9810 C.ar    1  LIG1       -0.1595
     12 H          15.5140    4.5350   11.6590 H       1  LIG1        0.2281
     13 N          13.9290    3.1630   11.3180 N.ar    1  LIG1       -0.3299
     14 H          14.3140    2.6590   10.5300 H       1  LIG1        0.3229
     15 C          13.9230    5.7280   14.0060 C.3     1  LIG1       -0.0038
     16 H          13.7640    5.3240   15.0110 H       1  LIG1        0.0888
     17 H          13.1850    6.5180   13.8290 H       1  LIG1        0.0136
     18 S          15.5920    6.4740   13.9540 S.3     1  LIG1       -0.1074
     19 C          15.5090    7.3030   12.3770 C.ar    1  LIG1       -0.0164
     20 C          14.2600    7.5100   11.7840 C.ar    1  LIG1       -0.1486
     21 H          13.3480    7.1870   12.2820 H       1  LIG1        0.1243
     22 C          14.1630    8.1420   10.5400 C.ar    1  LIG1        0.0865
     23 H          13.1810    8.2980   10.0990 H       1  LIG1        0.0619
     24 C          15.3160    8.5630    9.8750 C.ar    1  LIG1       -0.2008
     25 C          16.5700    8.3460   10.4580 C.ar    1  LIG1       -0.2539
     26 C          16.6640    7.7150   11.7040 C.ar    1  LIG1        0.1796
     27 H          17.6450    7.5370   12.1380 H       1  LIG1        0.0355
     28 CL         18.0410    8.8310    9.6870 Cl      1  LIG1        0.0685
     29 CL         15.1280    9.3370    8.3410 Cl      1  LIG1        0.0689
     30 N           9.8120    0.9810   11.8420 N.pl3   1  LIG1       -0.8490
     31 H           9.9980    0.3560   11.0720 H       1  LIG1        0.3866
     32 H           8.9470    0.9190   12.3590 H       1  LIG1        0.3827
@<TRIPOS>BOND
     1     1     2   ar
     2     2     3   ar
     3     3     4   ar
     4     4     5   ar
     5     5     6   ar
     6     6     1   ar
     7     6     7    1
     8     7     8    1
     9     7     9    1
    10     5    10   ar
    11    10    11   ar
    12    11    12    1
    13    11    13   ar
    14    13    14    1
    15    13     4   ar
    16    10    15    1
    17    15    16    1
    18    15    17    1
    19    15    18    1
    20    18    19    1
    21    19    20   ar
    22    20    21    1
    23    20    22   ar
    24    22    23    1
    25    22    24   ar
    26    24    25   ar
    27    25    26   ar
    28    26    27    1
    29    26    19   ar
    30    25    28    1
    31    24    29    1
    32     2    30    1
    33    30    31    1
    34    30    32    1
