@<TRIPOS>MOLECULE
40_table2_1
 30 32 0 0 0
SMALL
USER_CHARGES
****
From 3DB ct
@<TRIPOS>ATOM
      1 N          10.5500    2.8260   13.2830 N.ar    1  LIG1       -0.7034
      2 C          10.7550    2.0070   12.2480 C.ar    1  LIG1        0.8205
      3 N          11.8350    1.9920   11.4780 N.ar    1  LIG1       -0.5823
      4 C          12.7540    2.9050   11.8260 C.ar    1  LIG1        0.2375
      5 C          12.6730    3.8150   12.8670 C.ar    1  LIG1       -0.5400
      6 C          11.4860    3.7400   13.6210 C.ar    1  LIG1        0.7668
      7 N          11.1910    4.5320   14.7020 N.pl3   1  LIG1       -0.7769
      8 H          11.8180    5.2360   15.0620 H       1  LIG1        0.3401
      9 H          10.3090    4.3920   15.1810 H       1  LIG1        0.3332
     10 C          13.8670    4.6470   12.9210 C.ar    1  LIG1        0.2544
     11 C          14.7740    4.2970   11.9280 C.ar    1  LIG1       -0.4233
     12 S          14.2010    3.0200   10.9470 S.2     1  LIG1        0.1778
     13 C          16.1010    4.8490   11.6410 C.ar    1  LIG1        0.2854
     14 C          16.3100    5.6610   10.5180 C.ar    1  LIG1       -0.1455
     15 H          15.4890    5.8910    9.8410 H       1  LIG1        0.1225
     16 C          17.5760    6.1900   10.2560 C.ar    1  LIG1       -0.1381
     17 H          17.7310    6.8190    9.3810 H       1  LIG1        0.1164
     18 C          18.6400    5.9130   11.1130 C.ar    1  LIG1       -0.0847
     19 H          19.6260    6.3260   10.9080 H       1  LIG1        0.1027
     20 C          18.4410    5.1090   12.2340 C.ar    1  LIG1       -0.1225
     21 H          19.2710    4.8930   12.9050 H       1  LIG1        0.1105
     22 C          17.1750    4.5790   12.4990 C.ar    1  LIG1       -0.1666
     23 H          17.0350    3.9520   13.3780 H       1  LIG1        0.1201
     24 C          14.0860    5.7440   13.9170 C.3     1  LIG1       -0.1971
     25 H          14.1360    5.3320   14.9300 H       1  LIG1        0.0559
     26 H          13.2690    6.4710   13.8670 H       1  LIG1        0.0729
     27 H          15.0150    6.2930   13.7370 H       1  LIG1        0.0449
     28 N           9.7690    1.1110   11.9620 N.pl3   1  LIG1       -0.8533
     29 H           9.8810    0.4710   11.1890 H       1  LIG1        0.3856
     30 H           8.9330    1.0930   12.5270 H       1  LIG1        0.3862
@<TRIPOS>BOND
     1     1     2   ar
     2     2     3   ar
     3     3     4   ar
     4     4     5   ar
     5     5     6   ar
     6     6     1   ar
     7     6     7    1
     8     7     8    1
     9     7     9    1
    10     5    10   ar
    11    10    11   ar
    12    11    12   ar
    13    12     4   ar
    14    11    13    1
    15    13    14   ar
    16    14    15    1
    17    14    16   ar
    18    16    17    1
    19    16    18   ar
    20    18    19    1
    21    18    20   ar
    22    20    21    1
    23    20    22   ar
    24    22    23    1
    25    22    13   ar
    26    10    24    1
    27    24    25    1
    28    24    26    1
    29    24    27    1
    30     2    28    1
    31    28    29    1
    32    28    30    1
