@<TRIPOS>MOLECULE
44_17
 33 36 0 0 0
SMALL
USER_CHARGES
****
From 3DB ct
@<TRIPOS>ATOM
      1 N          10.2630    2.6570   13.0280 N.ar    1  LIG1       -0.6929
      2 C          10.8720    1.8730   12.1170 C.ar    1  LIG1        0.7439
      3 N          12.1180    2.0260   11.6440 N.ar    1  LIG1       -0.6128
      4 C          12.7390    3.0830   12.1850 C.ar    1  LIG1        0.4195
      5 C          12.2360    3.9620   13.1210 C.ar    1  LIG1       -0.3693
      6 C          10.9240    3.7190   13.5540 C.ar    1  LIG1        0.7248
      7 N          10.2740    4.4990   14.4810 N.pl3   1  LIG1       -0.7810
      8 H          10.7380    5.3010   14.8940 H       1  LIG1        0.3682
      9 H           9.3260    4.2770   14.7570 H       1  LIG1        0.3529
     10 N          13.1740    4.9240   13.4370 N.ar    1  LIG1       -0.3117
     11 C          14.2450    4.6420   12.7030 C.ar    1  LIG1        0.3397
     12 N          14.0070    3.5220   11.9290 N.ar    1  LIG1       -0.4883
     13 H          14.6510    3.0910   11.2820 H       1  LIG1        0.3546
     14 C          15.5060    5.3990   12.7040 C.ar    1  LIG1       -0.0539
     15 C          16.5890    5.0610   11.8830 C.ar    1  LIG1       -0.1118
     16 H          16.5430    4.2140   11.2010 H       1  LIG1        0.1060
     17 C          17.7730    5.8070   11.9130 C.ar    1  LIG1       -0.1726
     18 H          18.5950    5.5130   11.2600 H       1  LIG1        0.1277
     19 C          17.9060    6.9120   12.7650 C.ar    1  LIG1        0.0796
     20 C          16.8250    7.2690   13.5990 C.ar    1  LIG1        0.1029
     21 C          15.6420    6.5090   13.5560 C.ar    1  LIG1       -0.1183
     22 H          14.8080    6.7870   14.2020 H       1  LIG1        0.1212
     23 C          16.9550    8.3770   14.4540 C.ar    1  LIG1       -0.1838
     24 H          16.1330    8.6700   15.1060 H       1  LIG1        0.1331
     25 C          18.1360    9.1200   14.4840 C.ar    1  LIG1       -0.1075
     26 H          18.2230    9.9760   15.1510 H       1  LIG1        0.1119
     27 C          19.2010    8.7670   13.6610 C.ar    1  LIG1       -0.0761
     28 H          20.1230    9.3460   13.6830 H       1  LIG1        0.1055
     29 C          19.0880    7.6700   12.8060 C.ar    1  LIG1       -0.1814
     30 H          19.9330    7.4090   12.1690 H       1  LIG1        0.1235
     31 N          10.1520    0.8240   11.6300 N.pl3   1  LIG1       -0.7898
     32 H          10.5650    0.2080   10.9460 H       1  LIG1        0.3675
     33 H           9.2100    0.6710   11.9580 H       1  LIG1        0.3684
@<TRIPOS>BOND
     1     1     2   ar
     2     2     3   ar
     3     3     4   ar
     4     4     5   ar
     5     5     6   ar
     6     6     1   ar
     7     6     7    1
     8     7     8    1
     9     7     9    1
    10     5    10   ar
    11    10    11   ar
    12    11    12   ar
    13    12    13    1
    14    12     4   ar
    15    11    14    1
    16    14    15   ar
    17    15    16    1
    18    15    17   ar
    19    17    18    1
    20    17    19   ar
    21    19    20   ar
    22    20    21   ar
    23    21    22    1
    24    21    14   ar
    25    20    23   ar
    26    23    24    1
    27    23    25   ar
    28    25    26    1
    29    25    27   ar
    30    27    28    1
    31    27    29   ar
    32    29    30    1
    33    29    19   ar
    34     2    31    1
    35    31    32    1
    36    31    33    1
