@<TRIPOS>MOLECULE
44_2
 27 29 0 0 0
SMALL
USER_CHARGES
****
From 3DB ct
@<TRIPOS>ATOM
      1 N          10.2630    2.6570   13.0280 N.ar    1  LIG1       -0.6868
      2 C          10.8720    1.8730   12.1170 C.ar    1  LIG1        0.7384
      3 N          12.1180    2.0260   11.6440 N.ar    1  LIG1       -0.6134
      4 C          12.7390    3.0830   12.1850 C.ar    1  LIG1        0.4184
      5 C          12.2360    3.9620   13.1210 C.ar    1  LIG1       -0.3546
      6 C          10.9240    3.7190   13.5540 C.ar    1  LIG1        0.7117
      7 N          10.2740    4.4990   14.4810 N.pl3   1  LIG1       -0.7785
      8 H          10.7380    5.3010   14.8940 H       1  LIG1        0.3688
      9 H           9.3260    4.2770   14.7570 H       1  LIG1        0.3533
     10 N          13.1740    4.9240   13.4360 N.ar    1  LIG1       -0.3106
     11 C          14.2450    4.6420   12.7020 C.ar    1  LIG1        0.3135
     12 N          14.0070    3.5220   11.9290 N.ar    1  LIG1       -0.4789
     13 H          14.6510    3.0910   11.2820 H       1  LIG1        0.3512
     14 C          15.5060    5.4000   12.7020 C.ar    1  LIG1       -0.0394
     15 C          16.6000    5.0460   11.8970 C.ar    1  LIG1       -0.1190
     16 H          16.5610    4.1860   11.2320 H       1  LIG1        0.1044
     17 C          17.7820    5.7940   11.9260 C.ar    1  LIG1       -0.0974
     18 H          18.6210    5.5050   11.2950 H       1  LIG1        0.1057
     19 C          17.8900    6.9050   12.7580 C.ar    1  LIG1       -0.0922
     20 H          18.8100    7.4850   12.7790 H       1  LIG1        0.1080
     21 C          16.8150    7.2710   13.5640 C.ar    1  LIG1       -0.1330
     22 H          16.8930    8.1390   14.2160 H       1  LIG1        0.1171
     23 C          15.6340    6.5240   13.5340 C.ar    1  LIG1       -0.0353
     24 H          14.8060    6.8290   14.1730 H       1  LIG1        0.1003
     25 N          10.1520    0.8240   11.6300 N.pl3   1  LIG1       -0.7856
     26 H          10.5650    0.2090   10.9450 H       1  LIG1        0.3670
     27 H           9.2090    0.6710   11.9570 H       1  LIG1        0.3670
@<TRIPOS>BOND
     1     1     2   ar
     2     2     3   ar
     3     3     4   ar
     4     4     5   ar
     5     5     6   ar
     6     6     1   ar
     7     6     7    1
     8     7     8    1
     9     7     9    1
    10     5    10   ar
    11    10    11   ar
    12    11    12   ar
    13    12    13    1
    14    12     4   ar
    15    11    14    1
    16    14    15   ar
    17    15    16    1
    18    15    17   ar
    19    17    18    1
    20    17    19   ar
    21    19    20    1
    22    19    21   ar
    23    21    22    1
    24    21    23   ar
    25    23    24    1
    26    23    14   ar
    27     2    25    1
    28    25    26    1
    29    25    27    1
