@<TRIPOS>MOLECULE
9_12r
 40 42 0 0 0
SMALL
USER_CHARGES
****
From 3DB ct
@<TRIPOS>ATOM
      1 N          10.1720    2.6590   12.8930 N.ar    1  LIG1       -0.6528
      2 C          10.7570    2.0040   11.8940 C.ar    1  LIG1        0.7506
      3 N          12.0270    2.1590   11.5340 N.ar    1  LIG1       -0.6667
      4 C          12.7620    3.0270   12.2220 C.ar    1  LIG1        0.6157
      5 C          12.2710    3.7840   13.2940 C.ar    1  LIG1       -0.3146
      6 C          10.9260    3.5450   13.5680 C.ar    1  LIG1        0.6489
      7 N          10.2950    4.1760   14.6330 N.pl3   1  LIG1       -0.7436
      8 H          10.6290    5.0990   14.8950 H       1  LIG1        0.3554
      9 H           9.3060    3.9890   14.7580 H       1  LIG1        0.3531
     10 N          13.0500    4.6750   13.9860 N.ar    1  LIG1       -0.2326
     11 C          14.3450    4.7950   13.5870 C.ar    1  LIG1        0.1045
     12 C          14.8170    4.0410   12.5270 C.ar    1  LIG1        0.1844
     13 H          15.8470    4.1210   12.1900 H       1  LIG1        0.0937
     14 N          14.0390    3.1610   11.8420 N.ar    1  LIG1       -0.4527
     15 C          15.2750    5.7600   14.3050 C.3     1  LIG1       -0.0622
     16 H          15.8260    5.1940   15.0640 H       1  LIG1        0.0817
     17 H          14.6590    6.5300   14.7820 H       1  LIG1        0.0928
     18 N          16.2070    6.3770   13.3680 N.pl3   1  LIG1       -0.3903
     19 H          17.1880    6.1820   13.5780 H       1  LIG1        0.2847
     20 C          16.0170    7.1740   12.2550 C.ar    1  LIG1       -0.0127
     21 C          14.7380    7.7490   12.1050 C.ar    1  LIG1        0.0397
     22 H          13.9750    7.5480   12.8590 H       1  LIG1        0.1034
     23 C          14.4020    8.5730   11.0190 C.ar    1  LIG1       -0.3984
     24 C          15.3820    8.8440   10.0630 C.ar    1  LIG1       -0.0251
     25 H          15.1600    9.4900    9.2140 H       1  LIG1        0.1207
     26 C          16.6590    8.2890   10.1820 C.ar    1  LIG1       -0.1982
     27 H          17.3790    8.5330    9.4050 H       1  LIG1        0.1260
     28 C          16.9870    7.4570   11.2640 C.ar    1  LIG1        0.2382
     29 O          18.2280    6.8910   11.4210 O.3     1  LIG1       -0.2768
     30 C          19.2150    7.1520   10.4260 C.3     1  LIG1        0.0158
     31 H          20.1250    6.6160   10.7130 H       1  LIG1        0.0683
     32 H          19.4570    8.2180   10.3820 H       1  LIG1        0.0430
     33 H          18.8990    6.7710    9.4490 H       1  LIG1        0.0429
     34 C          13.0280    9.1810   10.9170 C.3     1  LIG1        1.0757
     35 F          12.9190   10.3600   11.6010 F       1  LIG1       -0.3311
     36 F          12.0370    8.3790   11.4140 F       1  LIG1       -0.3272
     37 F          12.6470    9.4660    9.6340 F       1  LIG1       -0.3284
     38 N          10.0050    1.1120   11.1950 N.pl3   1  LIG1       -0.7516
     39 H          10.4150    0.5970   10.4300 H       1  LIG1        0.3683
     40 H           9.0370    0.9700   11.4450 H       1  LIG1        0.3577
@<TRIPOS>BOND
     1     1     2   ar
     2     2     3   ar
     3     3     4   ar
     4     4     5   ar
     5     5     6   ar
     6     6     1   ar
     7     6     7    1
     8     7     8    1
     9     7     9    1
    10     5    10   ar
    11    10    11   ar
    12    11    12   ar
    13    12    13    1
    14    12    14   ar
    15    14     4   ar
    16    11    15    1
    17    15    16    1
    18    15    17    1
    19    15    18    1
    20    18    19    1
    21    18    20    1
    22    20    21   ar
    23    21    22    1
    24    21    23   ar
    25    23    24   ar
    26    24    25    1
    27    24    26   ar
    28    26    27    1
    29    26    28   ar
    30    28    20   ar
    31    28    29    1
    32    29    30    1
    33    30    31    1
    34    30    32    1
    35    30    33    1
    36    23    34    1
    37    34    35    1
    38    34    36    1
    39    34    37    1
    40     2    38    1
    41    38    39    1
    42    38    40    1
