@<TRIPOS>MOLECULE
9_12c
 38 41 0 0 0
SMALL
USER_CHARGES
****
From 3DB ct
@<TRIPOS>ATOM
      1 N          10.1250    2.5480   12.8460 N.ar    1  LIG1       -0.6364
      2 C          10.7790    1.9220   11.8710 C.ar    1  LIG1        0.7481
      3 N          12.0490    2.1500   11.5500 N.ar    1  LIG1       -0.6678
      4 C          12.7080    3.0690   12.2500 C.ar    1  LIG1        0.6225
      5 C          12.1390    3.7980   13.3020 C.ar    1  LIG1       -0.2861
      6 C          10.8110    3.4630   13.5530 C.ar    1  LIG1        0.5871
      7 N          10.0830    4.1300   14.5310 N.pl3   1  LIG1       -0.7043
      8 H          10.5940    4.4920   15.3310 H       1  LIG1        0.3396
      9 H           9.1330    3.8140   14.6930 H       1  LIG1        0.3450
     10 N          12.8410    4.7420   14.0090 N.ar    1  LIG1       -0.2115
     11 C          14.1300    4.9500   13.6430 C.ar    1  LIG1        0.0921
     12 C          14.6800    4.2200   12.6030 C.ar    1  LIG1        0.1882
     13 H          15.7120    4.3630   12.2940 H       1  LIG1        0.1051
     14 N          13.9820    3.2850   11.9040 N.ar    1  LIG1       -0.4568
     15 C          14.9460    5.9660   14.3970 C.3     1  LIG1       -0.2824
     16 H          15.0210    5.6590   15.4460 H       1  LIG1        0.1317
     17 H          14.4390    6.9380   14.3750 H       1  LIG1        0.1163
     18 S          16.6320    6.1220   13.7030 S.3     1  LIG1       -0.0060
     19 C          16.2300    7.1050   12.2510 C.ar    1  LIG1       -0.1478
     20 C          14.9120    7.5770   12.1650 C.ar    1  LIG1       -0.0610
     21 H          14.1860    7.3490   12.9440 H       1  LIG1        0.1128
     22 C          14.5060    8.3440   11.0780 C.ar    1  LIG1       -0.1088
     23 H          13.4810    8.7030   11.0160 H       1  LIG1        0.1043
     24 C          15.4150    8.6500   10.0690 C.ar    1  LIG1       -0.1565
     25 H          15.0750    9.2520    9.2260 H       1  LIG1        0.1254
     26 C          16.7420    8.2000   10.1320 C.ar    1  LIG1        0.0487
     27 C          17.1760    7.4180   11.2340 C.ar    1  LIG1        0.1539
     28 C          18.5310    7.0010   11.2430 C.ar    1  LIG1       -0.1749
     29 H          18.9260    6.4070   12.0660 H       1  LIG1        0.1195
     30 C          19.4120    7.3350   10.2110 C.ar    1  LIG1       -0.0833
     31 H          20.4460    6.9980   10.2480 H       1  LIG1        0.1081
     32 C          18.9650    8.0960    9.1400 C.ar    1  LIG1       -0.0973
     33 H          19.6470    8.3590    8.3330 H       1  LIG1        0.1056
     34 C          17.6400    8.5270    9.1020 C.ar    1  LIG1       -0.1658
     35 H          17.3120    9.1260    8.2530 H       1  LIG1        0.1203
     36 N          10.1010    0.9880   11.1520 N.pl3   1  LIG1       -0.7556
     37 H          10.5640    0.4940   10.4030 H       1  LIG1        0.3707
     38 H           9.1350    0.7940   11.3700 H       1  LIG1        0.3575
@<TRIPOS>BOND
     1     1     2   ar
     2     2     3   ar
     3     3     4   ar
     4     4     5   ar
     5     5     6   ar
     6     6     1   ar
     7     6     7    1
     8     7     8    1
     9     7     9    1
    10     5    10   ar
    11    10    11   ar
    12    11    12   ar
    13    12    13    1
    14    12    14   ar
    15    14     4   ar
    16    11    15    1
    17    15    16    1
    18    15    17    1
    19    15    18    1
    20    18    19    1
    21    19    20   ar
    22    20    21    1
    23    20    22   ar
    24    22    23    1
    25    22    24   ar
    26    24    25    1
    27    24    26   ar
    28    26    27   ar
    29    27    19   ar
    30    27    28   ar
    31    28    29    1
    32    28    30   ar
    33    30    31    1
    34    30    32   ar
    35    32    33    1
    36    32    34   ar
    37    34    35    1
    38    34    26   ar
    39     2    36    1
    40    36    37    1
    41    36    38    1
