@<TRIPOS>MOLECULE
9_12j
 32 34 0 0 0
SMALL
USER_CHARGES
****
From 3DB ct
@<TRIPOS>ATOM
      1 N          10.1470    2.5960   12.8670 N.ar    1  LIG1       -0.6328
      2 C          10.7710    1.9620   11.8780 C.ar    1  LIG1        0.7406
      3 N          12.0420    2.1550   11.5440 N.ar    1  LIG1       -0.6651
      4 C          12.7350    3.0500   12.2410 C.ar    1  LIG1        0.6107
      5 C          12.2000    3.7880   13.3050 C.ar    1  LIG1       -0.2603
      6 C          10.8670    3.4860   13.5730 C.ar    1  LIG1        0.5854
      7 N          10.1720    4.1620   14.5680 N.pl3   1  LIG1       -0.7273
      8 H          10.7040    4.5010   15.3640 H       1  LIG1        0.3448
      9 H           9.2160    3.8700   14.7410 H       1  LIG1        0.3546
     10 N          12.9360    4.7070   14.0080 N.ar    1  LIG1       -0.1936
     11 C          14.2250    4.8830   13.6270 C.ar    1  LIG1        0.0330
     12 C          14.7410    4.1490   12.5730 C.ar    1  LIG1        0.1712
     13 H          15.7690    4.2760   12.2440 H       1  LIG1        0.1147
     14 N          14.0110    3.2340   11.8800 N.ar    1  LIG1       -0.4466
     15 C          15.0640    5.9010   14.3540 C.3     1  LIG1       -0.2187
     16 H          15.2200    5.5800   15.3890 H       1  LIG1        0.1325
     17 H          14.5230    6.8540   14.3770 H       1  LIG1        0.0944
     18 S          16.6790    6.1490   13.5220 S.3     1  LIG1       -0.0425
     19 C          16.1820    7.1700   12.1460 C.ar    1  LIG1        0.0456
     20 C          14.8610    7.6330   12.0990 C.ar    1  LIG1       -0.2315
     21 H          14.1590    7.3870   12.8940 H       1  LIG1        0.1464
     22 C          14.4240    8.4240   11.0330 C.ar    1  LIG1        0.1591
     23 H          13.3960    8.7790   11.0160 H       1  LIG1        0.0531
     24 C          15.3050    8.7480   10.0050 C.ar    1  LIG1       -0.3971
     25 C          16.6180    8.2840   10.0330 C.ar    1  LIG1        0.0955
     26 H          17.3080    8.5270    9.2280 H       1  LIG1        0.0687
     27 C          17.0540    7.4920   11.1000 C.ar    1  LIG1       -0.0904
     28 H          18.0780    7.1250   11.0890 H       1  LIG1        0.0974
     29 CL         14.7680    9.7220    8.6910 Cl      1  LIG1        0.0789
     30 N          10.0560    1.0560   11.1570 N.pl3   1  LIG1       -0.7482
     31 H          10.4940    0.5600   10.3950 H       1  LIG1        0.3710
     32 H           9.0850    0.8950   11.3800 H       1  LIG1        0.3565
@<TRIPOS>BOND
     1     1     2   ar
     2     2     3   ar
     3     3     4   ar
     4     4     5   ar
     5     5     6   ar
     6     6     1   ar
     7     6     7    1
     8     7     8    1
     9     7     9    1
    10     5    10   ar
    11    10    11   ar
    12    11    12   ar
    13    12    13    1
    14    12    14   ar
    15    14     4   ar
    16    11    15    1
    17    15    16    1
    18    15    17    1
    19    15    18    1
    20    18    19    1
    21    19    20   ar
    22    20    21    1
    23    20    22   ar
    24    22    23    1
    25    22    24   ar
    26    24    25   ar
    27    25    26    1
    28    25    27   ar
    29    27    28    1
    30    27    19   ar
    31    24    29    1
    32     2    30    1
    33    30    31    1
    34    30    32    1
