@<TRIPOS>MOLECULE
9_14b
 44 46 0 0 0
SMALL
USER_CHARGES
****
From 3DB ct
@<TRIPOS>ATOM
      1 N          10.1300    2.6200   12.8130 N.ar    1  LIG1       -0.7154
      2 C          10.8020    1.9640   11.8790 C.ar    1  LIG1        0.8114
      3 N          12.0800    2.1680   11.6030 N.ar    1  LIG1       -0.7025
      4 C          12.7340    3.0840   12.2960 C.ar    1  LIG1        0.8361
      5 C          12.1550    3.8590   13.3090 C.ar    1  LIG1       -0.8722
      6 C          10.7930    3.5490   13.5200 C.ar    1  LIG1        0.8221
      7 N          10.0040    4.1750   14.4740 N.pl3   1  LIG1       -0.7517
      8 H          10.2990    4.0270   15.4370 H       1  LIG1        0.3195
      9 H           9.8290    5.1620   14.3050 H       1  LIG1        0.3224
     10 C          12.9980    4.8300   13.9800 C.ar    1  LIG1        0.4956
     11 C          14.3540    4.9340   13.6110 C.ar    1  LIG1       -0.4182
     12 C          14.7860    4.1100   12.5840 C.ar    1  LIG1        0.4078
     13 H          15.8160    4.1520   12.2300 H       1  LIG1        0.0791
     14 N          14.0090    3.2100   11.9440 N.ar    1  LIG1       -0.5939
     15 C          15.3520    5.8880   14.2250 C.3     1  LIG1        0.0073
     16 H          15.8000    5.4150   15.1050 H       1  LIG1        0.0828
     17 H          14.8410    6.7820   14.6030 H       1  LIG1        0.0798
     18 N          16.3690    6.2360   13.2390 N.pl3   1  LIG1       -0.4383
     19 H          16.9670    5.4570   12.9640 H       1  LIG1        0.2981
     20 C          16.0290    7.1120   12.2100 C.ar    1  LIG1        0.0475
     21 C          14.7130    7.6010   12.1680 C.ar    1  LIG1       -0.0597
     22 H          13.9820    7.2560   12.8990 H       1  LIG1        0.1071
     23 C          14.3070    8.5460   11.2180 C.ar    1  LIG1       -0.2778
     24 H          13.2750    8.8820   11.2450 H       1  LIG1        0.1510
     25 C          15.2200    9.0300   10.2890 C.ar    1  LIG1        0.2769
     26 C          16.5320    8.5520   10.3180 C.ar    1  LIG1       -0.2593
     27 H          17.2460    8.9290    9.5860 H       1  LIG1        0.1435
     28 C          16.9470    7.5880   11.2590 C.ar    1  LIG1        0.0450
     29 C          18.3710    7.1060   11.1860 C.3     1  LIG1       -0.1946
     30 H          18.7320    7.1170   10.1520 H       1  LIG1        0.0612
     31 H          18.4630    6.0730   11.5360 H       1  LIG1        0.0606
     32 H          19.0190    7.7530   11.7850 H       1  LIG1        0.0504
     33 O          14.9650    9.9560    9.3160 O.3     1  LIG1       -0.2968
     34 C          16.0560   10.3110    8.4670 C.3     1  LIG1        0.0460
     35 H          15.6910   11.0530    7.7510 H       1  LIG1        0.0581
     36 H          16.4100    9.4440    7.8990 H       1  LIG1        0.0299
     37 H          16.8670   10.7700    9.0410 H       1  LIG1        0.0275
     38 C          12.4400    5.7200   15.0650 C.3     1  LIG1       -0.2196
     39 H          12.1330    5.1210   15.9270 H       1  LIG1        0.0736
     40 H          11.5980    6.3030   14.6810 H       1  LIG1        0.0659
     41 H          13.1560    6.4560   15.4360 H       1  LIG1        0.0511
     42 N          10.1360    1.0200   11.1600 N.pl3   1  LIG1       -0.8093
     43 H          10.6190    0.5020   10.4410 H       1  LIG1        0.3790
     44 H           9.1600    0.8430   11.3500 H       1  LIG1        0.3732
@<TRIPOS>BOND
     1     1     2   ar
     2     2     3   ar
     3     3     4   ar
     4     4     5   ar
     5     5     6   ar
     6     6     1   ar
     7     6     7    1
     8     7     8    1
     9     7     9    1
    10     5    10   ar
    11    10    11   ar
    12    11    12   ar
    13    12    13    1
    14    12    14   ar
    15    14     4   ar
    16    11    15    1
    17    15    16    1
    18    15    17    1
    19    15    18    1
    20    18    19    1
    21    18    20    1
    22    20    21   ar
    23    21    22    1
    24    21    23   ar
    25    23    24    1
    26    23    25   ar
    27    25    26   ar
    28    26    27    1
    29    26    28   ar
    30    28    20   ar
    31    28    29    1
    32    29    30    1
    33    29    31    1
    34    29    32    1
    35    25    33    1
    36    33    34    1
    37    34    35    1
    38    34    36    1
    39    34    37    1
    40    10    38    1
    41    38    39    1
    42    38    40    1
    43    38    41    1
    44     2    42    1
    45    42    43    1
    46    42    44    1
