@<TRIPOS>MOLECULE
M15
 71 70 0 0 0
SMALL
GASTEIGER
Energy = 0

@<TRIPOS>ATOM
      1 C          -2.9094   -9.3247    3.5415 C.3     1  LIG11       0.0710
      2 H          -3.9097   -9.6913    3.8315 H       1  LIG11       0.0583
      3 H          -3.1878  -12.0586    3.3658 H       1  LIG11       0.0560
      4 C          -2.5103   -8.1650    4.4850 C.3     1  LIG11       0.0713
      5 O          -3.3253   -7.0185    4.1593 O.3     1  LIG11      -0.3748
      6 H          -2.9562   -8.9352    2.5097 H       1  LIG11       0.0583
      7 H          -2.5681  -11.2950    1.8751 H       1  LIG11       0.0560
      8 C          -4.7278   -7.1567    4.4948 C.3     1  LIG11       0.0532
      9 C          -5.4213   -5.8656    3.9836 C.3     1  LIG11      -0.0390
     10 H          -1.4359   -7.9680    4.3378 H       1  LIG11       0.0583
     11 H          -2.6770   -8.4841    5.5283 H       1  LIG11       0.0583
     12 C          -4.9634   -7.3099    6.0277 C.3     1  LIG11      -0.0390
     13 H          -0.3172  -12.0458    2.2757 H       1  LIG11       0.0287
     14 H          -1.3664  -13.4833    2.3616 H       1  LIG11       0.0287
     15 H          -1.2532  -13.4634    4.8586 H       1  LIG11       0.0269
     16 H          -0.3801  -11.9157    4.8400 H       1  LIG11       0.0269
     17 H           0.7244  -14.6391    3.9993 H       1  LIG11       0.0307
     18 H           1.2870  -13.5599    5.2814 H       1  LIG11       0.0307
     19 H           2.0326  -11.8564    3.4832 H       1  LIG11       0.0569
     20 H           3.2431  -12.9432    1.7820 H       1  LIG11       0.0572
     21 H           2.9838  -15.1636    1.0585 H       1  LIG11       0.0350
     22 H           1.3795  -15.2725    1.7724 H       1  LIG11       0.0350
     23 H           3.0790  -15.3949    4.0655 H       1  LIG11       0.0572
     24 H           4.0371  -17.5179    3.8120 H       1  LIG11       0.0572
     25 H           3.1974  -17.3392    0.8006 H       1  LIG11       0.0350
     26 H           3.1530  -18.7908    1.7890 H       1  LIG11       0.0350
     27 H           5.5932  -17.2866    0.6514 H       1  LIG11       0.0572
     28 H           7.0244  -18.9520    1.4422 H       1  LIG11       0.0572
     29 H           6.4048  -20.9306    2.7658 H       1  LIG11       0.0350
     30 H           4.7250  -20.6285    2.2775 H       1  LIG11       0.0350
     31 H           4.3697  -19.2102    4.2708 H       1  LIG11       0.0572
     32 H           5.9258  -19.2595    6.0505 H       1  LIG11       0.0569
     33 C          -2.3100  -11.5742    2.9114 C.3     1  LIG11       0.0478
     34 C          -1.0968  -12.5455    2.8769 C.3     1  LIG11      -0.0292
     35 C          -0.5234  -12.8638    4.2908 C.3     1  LIG11      -0.0475
     36 C           0.8585  -13.5788    4.2648 C.3     1  LIG11      -0.0347
     37 C           1.8549  -12.9242    3.3381 C.2     1  LIG11      -0.0876
     38 C           2.5362  -13.5415    2.3616 C.2     1  LIG11      -0.0842
     39 C           2.4187  -15.0000    1.9875 C.3     1  LIG11      -0.0165
     40 C           3.0601  -15.8377    3.0674 C.2     1  LIG11      -0.0839
     41 C           3.6057  -17.0547    2.9219 C.2     1  LIG11      -0.0839
     42 C           3.6941  -17.8481    1.6396 C.3     1  LIG11      -0.0165
     43 C           5.1607  -18.0330    1.3205 C.2     1  LIG11      -0.0839
     44 C           5.9819  -18.9980    1.7662 C.2     1  LIG11      -0.0839
     45 C           5.6341  -20.1529    2.6810 C.3     1  LIG11      -0.0165
     46 C           5.3553  -19.6408    4.0758 C.2     1  LIG11      -0.0842
     47 C           6.2365  -19.6709    5.0874 C.2     1  LIG11      -0.0876
     48 C           7.6451  -20.2180    5.0098 C.3     1  LIG11      -0.0348
     49 C           8.6605  -19.0915    5.3315 C.3     1  LIG11      -0.0496
     50 C          10.1271  -19.5736    5.1526 C.3     1  LIG11      -0.0530
     51 C          11.1230  -18.3878    5.2627 C.3     1  LIG11      -0.0559
     52 C          10.7307  -17.2286    4.3097 C.3     1  LIG11      -0.0653
     53 H          -5.1814   -8.0161    3.9628 H       1  LIG11       0.0590
     54 O          -1.9397  -10.3888    3.6500 O.3     1  LIG11      -0.3775
     55 H           7.8816  -20.6446    4.0230 H       1  LIG11       0.0307
     56 H           7.7382  -21.0286    5.7517 H       1  LIG11       0.0307
     57 H           8.5127  -18.7539    6.3738 H       1  LIG11       0.0268
     58 H           8.4698  -18.2352    4.6597 H       1  LIG11       0.0268
     59 H          10.2386  -20.0527    4.1636 H       1  LIG11       0.0265
     60 H          10.3588  -20.3227    5.9298 H       1  LIG11       0.0265
     61 H          12.1403  -18.7334    5.0065 H       1  LIG11       0.0263
     62 H          11.1365  -18.0114    6.3008 H       1  LIG11       0.0263
     63 H          11.4448  -16.3941    4.4048 H       1  LIG11       0.0230
     64 H           9.7201  -16.8610    4.5515 H       1  LIG11       0.0230
     65 H          10.7365  -17.5790    3.2648 H       1  LIG11       0.0230
     66 H          -5.1195   -4.9920    4.5857 H       1  LIG11       0.0254
     67 H          -6.5164   -5.9764    4.0561 H       1  LIG11       0.0254
     68 H          -5.1564   -5.6814    2.9289 H       1  LIG11       0.0254
     69 H          -6.0383   -7.4469    6.2392 H       1  LIG11       0.0254
     70 H          -4.6104   -6.4027    6.5472 H       1  LIG11       0.0254
     71 H          -4.4293   -8.1857    6.4313 H       1  LIG11       0.0254
@<TRIPOS>BOND
     1    27    43    1
     2    25    42    1
     3    21    39    1
     4    43    42    1
     5    43    44    2
     6    28    44    1
     7    42    26    1
     8    42    41    1
     9    44    45    1
    10    22    39    1
    11    20    38    1
    12     7    33    1
    13    39    38    1
    14    39    40    1
    15    13    34    1
    16    30    45    1
    17    14    34    1
    18    38    37    2
    19     6     1    1
    20    45    29    1
    21    45    46    1
    22    34    33    1
    23    34    35    1
    24    33     3    1
    25    33    54    1
    26    41    40    2
    27    41    24    1
    28    68     9    1
    29    40    23    1
    30    65    52    1
    31    37    19    1
    32    37    36    1
    33     1    54    1
    34     1     2    1
    35     1     4    1
    36    53     8    1
    37     9    67    1
    38     9     8    1
    39     9    66    1
    40    17    36    1
    41    55    48    1
    42    46    31    1
    43    46    47    2
    44     5     4    1
    45     5     8    1
    46    59    50    1
    47    36    35    1
    48    36    18    1
    49    35    16    1
    50    35    15    1
    51    52    63    1
    52    52    64    1
    53    52    51    1
    54    10     4    1
    55     4    11    1
    56     8    12    1
    57    58    49    1
    58    61    51    1
    59    48    47    1
    60    48    49    1
    61    48    56    1
    62    47    32    1
    63    50    51    1
    64    50    49    1
    65    50    60    1
    66    51    62    1
    67    49    57    1
    68    12    69    1
    69    12    71    1
    70    12    70    1
