@<TRIPOS>MOLECULE
M16
 65 64 0 0 0
SMALL
GASTEIGER
Energy = 0

@<TRIPOS>ATOM
      1 C          -3.6343   -8.4310    4.0023 C.2     1  LIG11       0.3383
      2 O          -5.3625   -6.8357    4.3357 O.3     1  LIG11      -0.3786
      3 O          -4.2082   -8.7214    2.9571 O.2     1  LIG11      -0.2478
      4 C          -4.1049   -7.2920    4.8702 C.3     1  LIG11       0.1746
      5 C          -4.2914   -7.7121    6.3459 C.3     1  LIG11       0.0806
      6 O          -4.2519   -6.5251    7.1640 O.3     1  LIG11      -0.3919
      7 H          -5.7372   -6.1229    4.8540 H       1  LIG11       0.2106
      8 H          -3.4826   -8.4078    6.6370 H       1  LIG11       0.0588
      9 H          -5.2694   -8.2185    6.4718 H       1  LIG11       0.0588
     10 H          -3.4093   -6.0851    7.1538 H       1  LIG11       0.2095
     11 H          -3.3517   -6.4806    4.8044 H       1  LIG11       0.0734
     12 H          -1.2211  -10.8159    5.4718 H       1  LIG11       0.0298
     13 H          -0.0119  -10.4769    4.2174 H       1  LIG11       0.0298
     14 H          -0.8041  -12.5694    2.9586 H       1  LIG11       0.0269
     15 H          -1.9552  -12.8840    4.2689 H       1  LIG11       0.0269
     16 H          -0.0426  -13.0773    5.9196 H       1  LIG11       0.0307
     17 H           1.0882  -12.8816    4.5829 H       1  LIG11       0.0307
     18 H          -0.8825  -15.2508    4.6601 H       1  LIG11       0.0569
     19 H           0.9740  -16.5357    3.9854 H       1  LIG11       0.0572
     20 H           3.2397  -15.7455    4.3713 H       1  LIG11       0.0350
     21 H           2.7271  -14.0773    4.6396 H       1  LIG11       0.0350
     22 H           2.7393  -13.7102    2.1923 H       1  LIG11       0.0572
     23 H           3.3066  -15.3506    0.6114 H       1  LIG11       0.0572
     24 H           2.4450  -17.7397    1.5556 H       1  LIG11       0.0350
     25 H           3.3530  -17.2996    2.9991 H       1  LIG11       0.0350
     26 H           4.6422  -17.3048    0.1481 H       1  LIG11       0.0572
     27 H           6.3957  -18.5800    1.0099 H       1  LIG11       0.0572
     28 H           4.7983  -19.4987    3.4198 H       1  LIG11       0.0350
     29 H           5.8404  -18.1089    3.7651 H       1  LIG11       0.0350
     30 H           6.9917  -20.5853    2.3035 H       1  LIG11       0.0572
     31 H           8.5724  -20.6422    4.0597 H       1  LIG11       0.0569
     32 C          -2.1030  -10.1557    3.6357 C.3     1  LIG11       0.0926
     33 C          -0.9986  -10.9305    4.3998 C.3     1  LIG11      -0.0183
     34 C          -0.9713  -12.4434    4.0398 C.3     1  LIG11      -0.0465
     35 C           0.0853  -13.2559    4.8422 C.3     1  LIG11      -0.0346
     36 C           0.0740  -14.7367    4.5498 C.2     1  LIG11      -0.0876
     37 C           1.1325  -15.4717    4.1788 C.2     1  LIG11      -0.0842
     38 C           2.5469  -14.9629    4.0154 C.3     1  LIG11      -0.0165
     39 C           2.8240  -14.7428    2.5454 C.2     1  LIG11      -0.0839
     40 C           3.1528  -15.6809    1.6425 C.2     1  LIG11      -0.0839
     41 C           3.3120  -17.1606    1.9099 C.3     1  LIG11      -0.0165
     42 C           4.5591  -17.6247    1.1892 C.2     1  LIG11      -0.0839
     43 C           5.5621  -18.3675    1.6838 C.2     1  LIG11      -0.0839
     44 C           5.6798  -18.9471    3.0734 C.3     1  LIG11      -0.0165
     45 C           6.8625  -19.8827    3.1310 C.2     1  LIG11      -0.0842
     46 C           7.7620  -19.9163    4.1254 C.2     1  LIG11      -0.0876
     47 C           7.7518  -19.0303    5.3513 C.3     1  LIG11      -0.0348
     48 C           9.0255  -18.1489    5.3824 C.3     1  LIG11      -0.0496
     49 C          10.3177  -19.0159    5.3959 C.3     1  LIG11      -0.0530
     50 C          11.5974  -18.1390    5.3215 C.3     1  LIG11      -0.0559
     51 C          12.8821  -19.0105    5.3280 C.3     1  LIG11      -0.0653
     52 H          -2.9262  -10.8278    3.3646 H       1  LIG11       0.0697
     53 O          -2.5600   -9.0806    4.4713 O.3     1  LIG11      -0.4628
     54 H           7.6923  -19.6027    6.2885 H       1  LIG11       0.0307
     55 H           6.8572  -18.3872    5.3007 H       1  LIG11       0.0307
     56 H           9.0098  -17.5103    6.2822 H       1  LIG11       0.0268
     57 H           9.0346  -17.4935    4.4950 H       1  LIG11       0.0268
     58 H          10.3021  -19.7085    4.5365 H       1  LIG11       0.0265
     59 H          10.3408  -19.6152    6.3231 H       1  LIG11       0.0265
     60 H          11.6234  -17.4502    6.1840 H       1  LIG11       0.0263
     61 H          11.5757  -17.5349    4.3969 H       1  LIG11       0.0263
     62 H          12.8904  -19.6879    4.4591 H       1  LIG11       0.0230
     63 H          12.9301  -19.6133    6.2487 H       1  LIG11       0.0230
     64 H          13.7738  -18.3680    5.2812 H       1  LIG11       0.0230
     65 H          -1.6752   -9.7423    2.7083 H       1  LIG11       0.0697
@<TRIPOS>BOND
     1    26    42    1
     2    23    40    1
     3    27    43    1
     4    42    43    2
     5    42    41    1
     6    24    41    1
     7    40    41    1
     8    40    39    2
     9    43    44    1
    10    41    25    1
    11    22    39    1
    12    30    45    1
    13    39    38    1
    14    65    32    1
    15     3     1    2
    16    14    34    1
    17    44    45    1
    18    44    28    1
    19    44    29    1
    20    45    46    2
    21    52    32    1
    22    32    33    1
    23    32    53    1
    24    19    37    1
    25     1    53    1
    26     1     4    1
    27    38    37    1
    28    38    20    1
    29    38    21    1
    30    34    15    1
    31    34    33    1
    32    34    35    1
    33    31    46    1
    34    46    47    1
    35    37    36    2
    36    13    33    1
    37     2     7    1
    38     2     4    1
    39    61    50    1
    40    33    12    1
    41    62    51    1
    42    57    48    1
    43    58    49    1
    44    36    18    1
    45    36    35    1
    46    17    35    1
    47    11     4    1
    48    35    16    1
    49     4     5    1
    50    64    51    1
    51    55    47    1
    52    50    51    1
    53    50    49    1
    54    50    60    1
    55    51    63    1
    56    47    48    1
    57    47    54    1
    58    48    49    1
    59    48    56    1
    60    49    59    1
    61     5     9    1
    62     5     8    1
    63     5     6    1
    64    10     6    1
