@<TRIPOS>MOLECULE
M2
 53 55 0 0 0
SMALL
GASTEIGER
Energy = 0

@<TRIPOS>ATOM
      1 C           1.9325  -14.6734    3.2432 C.2     1  LIG11      -0.0759
      2 C           0.8984  -15.0360    4.0183 C.2     1  LIG11      -0.0846
      3 C           0.7252  -16.4205    4.6000 C.3     1  LIG11      -0.0275
      4 C           2.0808  -17.1810    4.5962 C.3     1  LIG11       0.0091
      5 C           2.0305  -18.6494    5.1128 C.3     1  LIG11       0.1087
      6 H           5.6188  -20.3762    4.8416 H       1  LIG11       0.0657
      7 C           2.0639  -13.2496    2.7353 C.3     1  LIG11      -0.0438
      8 C           4.2230  -18.9341    4.0990 C.ar    1  LIG11       0.1285
      9 C           1.4562  -18.7378    6.5533 C.3     1  LIG11      -0.0249
     10 C           1.2496  -19.6392    4.2010 C.3     1  LIG11      -0.0249
     11 C           7.7005  -20.1584    3.0227 C.3     1  LIG11      -0.0275
     12 C           8.8051  -19.1894    3.5318 C.3     1  LIG11      -0.0491
     13 C           8.5434  -18.6098    4.9514 C.3     1  LIG11      -0.0530
     14 C           9.6704  -17.6575    5.4400 C.3     1  LIG11      -0.0559
     15 C          11.0320  -18.3998    5.5192 C.3     1  LIG11      -0.0653
     16 C           5.4069  -19.6725    4.0461 C.ar    1  LIG11      -0.0162
     17 C           6.3042  -19.5119    2.9858 C.ar    1  LIG11      -0.0404
     18 C           5.9001  -18.7480    1.8847 C.ar    1  LIG11      -0.0165
     19 C           4.6683  -18.0831    1.8850 C.ar    1  LIG11       0.1240
     20 C           3.8878  -18.0726    3.0464 C.ar    1  LIG11       0.0394
     21 C           2.6773  -17.1311    3.1678 C.3     1  LIG11       0.0014
     22 C           3.0229  -15.6500    2.8334 C.3     1  LIG11      -0.0245
     23 H           4.5412  -17.7926   -0.0768 H       1  LIG11       0.2921
     24 H           6.5434  -18.6758    1.0175 H       1  LIG11       0.0657
     25 H           1.9122  -17.4601    2.4460 H       1  LIG11       0.0358
     26 H           0.1361  -14.2767    4.2512 H       1  LIG11       0.0572
     27 H           1.2868  -12.5779    3.1382 H       1  LIG11       0.0274
     28 H           1.9843  -13.2601    1.6336 H       1  LIG11       0.0274
     29 H          -0.0468  -16.9467    4.0164 H       1  LIG11       0.0312
     30 H           0.3631  -16.3007    5.6362 H       1  LIG11       0.0312
     31 H           2.7667  -16.6294    5.2649 H       1  LIG11       0.0348
     32 H           3.0514  -12.8426    3.0127 H       1  LIG11       0.0274
     33 H           3.1589  -15.5364    1.7395 H       1  LIG11       0.0316
     34 H           3.9727  -15.3621    3.3314 H       1  LIG11       0.0316
     35 H           1.4215  -19.7814    6.9003 H       1  LIG11       0.0268
     36 H           0.4406  -18.3131    6.5936 H       1  LIG11       0.0268
     37 H           2.0955  -18.1685    7.2496 H       1  LIG11       0.0268
     38 H           0.1891  -19.3600    4.1449 H       1  LIG11       0.0268
     39 H           1.3124  -20.6538    4.6230 H       1  LIG11       0.0268
     40 H           1.6564  -19.6865    3.1822 H       1  LIG11       0.0268
     41 H           7.9812  -20.5110    2.0186 H       1  LIG11       0.0313
     42 H           7.6493  -21.0414    3.6794 H       1  LIG11       0.0313
     43 H           8.9018  -18.3561    2.8151 H       1  LIG11       0.0268
     44 H           9.7739  -19.7129    3.5491 H       1  LIG11       0.0268
     45 H           8.4671  -19.4549    5.6567 H       1  LIG11       0.0265
     46 H           7.5815  -18.0713    4.9737 H       1  LIG11       0.0265
     47 H           9.4279  -17.2672    6.4427 H       1  LIG11       0.0263
     48 H           9.7626  -16.8064    4.7447 H       1  LIG11       0.0263
     49 H          10.9707  -19.2281    6.2435 H       1  LIG11       0.0230
     50 H          11.8281  -17.7107    5.8428 H       1  LIG11       0.0230
     51 H          11.3004  -18.8137    4.5337 H       1  LIG11       0.0230
     52 O           3.3961  -19.0732    5.2141 O.3     1  LIG11      -0.4855
     53 O           4.2034  -17.4364    0.7372 O.3     1  LIG11      -0.5064
@<TRIPOS>BOND
     1    23    53    1
     2    53    19    1
     3    24    18    1
     4    28     7    1
     5    33    22    1
     6    18    19   ar
     7    18    17   ar
     8    19    20   ar
     9    41    11    1
    10    25    21    1
    11     7    32    1
    12     7    27    1
    13     7     1    1
    14    43    12    1
    15    22    21    1
    16    22     1    1
    17    22    34    1
    18    17    11    1
    19    17    16   ar
    20    11    12    1
    21    11    42    1
    22    20    21    1
    23    20     8   ar
    24    21     4    1
    25    40    10    1
    26     1     2    2
    27    12    44    1
    28    12    13    1
    29    29     3    1
    30     2    26    1
    31     2     3    1
    32    16     8   ar
    33    16     6    1
    34     8    52    1
    35    38    10    1
    36    10    39    1
    37    10     5    1
    38    51    15    1
    39     4     3    1
    40     4     5    1
    41     4    31    1
    42     3    30    1
    43    48    14    1
    44    13    46    1
    45    13    14    1
    46    13    45    1
    47     5    52    1
    48     5     9    1
    49    14    15    1
    50    14    47    1
    51    15    50    1
    52    15    49    1
    53     9    36    1
    54     9    35    1
    55     9    37    1
