@<TRIPOS>MOLECULE
M3
 67 68 0 0 0
SMALL
GASTEIGER
Energy = 0

@<TRIPOS>ATOM
      1 C           1.8671  -13.9179    0.6805 C.3     1  LIG11       0.0558
      2 C           1.0748  -13.0037    1.6491 C.3     1  LIG11      -0.0266
      3 C           0.2580  -13.8497    2.6618 C.3     1  LIG11      -0.0473
      4 C           1.1808  -14.8041    3.4756 C.3     1  LIG11      -0.0339
      5 C           0.3779  -15.6944    4.4750 C.3     1  LIG11      -0.0476
      6 H           4.8348  -16.8296    6.0465 H       1  LIG11       0.0621
      7 O           2.6044  -13.1401   -0.2785 O.3     1  LIG11      -0.3918
      8 C           3.5381  -16.2995    4.4401 C.ar    1  LIG11      -0.0546
      9 C          10.5925  -19.4130    4.9731 C.3     1  LIG11      -0.0559
     10 C          12.0739  -19.4146    5.4324 C.3     1  LIG11      -0.0653
     11 C           5.6322  -19.3807    5.4131 C.3     1  LIG11      -0.0097
     12 C           7.0991  -18.8276    5.3349 C.3     1  LIG11      -0.0439
     13 C           7.8151  -18.8672    3.9474 C.3     1  LIG11      -0.0523
     14 C           8.9652  -17.8424    3.7592 C.3     1  LIG11      -0.0530
     15 C          10.0289  -17.9682    4.8850 C.3     1  LIG11      -0.0533
     16 C           4.3888  -17.1734    5.1208 C.ar    1  LIG11      -0.0576
     17 C           4.6689  -18.4527    4.6243 C.ar    1  LIG11      -0.0383
     18 C           4.0535  -18.8253    3.4207 C.ar    1  LIG11      -0.0162
     19 C           3.2015  -17.9549    2.7265 C.ar    1  LIG11       0.1206
     20 C           2.9353  -16.6777    3.2361 C.ar    1  LIG11      -0.0025
     21 C           1.9954  -15.7028    2.4953 C.3     1  LIG11      -0.0073
     22 C           2.8090  -14.8502    1.4852 C.3     1  LIG11      -0.0197
     23 H           2.9639  -19.1432    1.1357 H       1  LIG11       0.2921
     24 H           4.2273  -19.8042    2.9962 H       1  LIG11       0.0657
     25 H           1.2615  -16.2753    1.9069 H       1  LIG11       0.0353
     26 H           3.3455  -15.5140    0.7871 H       1  LIG11       0.0296
     27 H           0.3959  -12.3606    1.0644 H       1  LIG11       0.0290
     28 H           1.7754  -12.3518    2.1960 H       1  LIG11       0.0290
     29 H          -0.5027  -14.4381    2.1233 H       1  LIG11       0.0269
     30 H          -0.2630  -13.1454    3.3292 H       1  LIG11       0.0269
     31 H           1.8760  -14.1764    4.0559 H       1  LIG11       0.0307
     32 H           1.1567  -14.5308    0.1011 H       1  LIG11       0.0593
     33 H          -0.2650  -16.3937    3.9168 H       1  LIG11       0.0269
     34 H           1.0907  -16.2903    5.0665 H       1  LIG11       0.0269
     35 C          -0.4933  -14.8867    5.4777 C.3     1  LIG11      -0.0294
     36 C          -1.3949  -15.8156    6.3312 C.3     1  LIG11       0.0442
     37 O          -2.0879  -15.0181    7.3073 O.3     1  LIG11      -0.3950
     38 H           2.9406  -13.6650   -0.9972 H       1  LIG11       0.2098
     39 H           3.3549  -15.3191    4.8646 H       1  LIG11       0.0622
     40 H          10.5232  -19.8984    3.9853 H       1  LIG11       0.0263
     41 C           5.1617  -19.4016    6.9032 C.3     1  LIG11      -0.0558
     42 C           5.5959  -20.8762    4.9515 C.3     1  LIG11      -0.0558
     43 H           7.7307  -19.3500    6.0713 H       1  LIG11       0.0274
     44 H           7.0981  -17.7658    5.6315 H       1  LIG11       0.0274
     45 H           7.0498  -18.6600    3.1798 H       1  LIG11       0.0266
     46 H           8.2086  -19.8750    3.7422 H       1  LIG11       0.0266
     47 H           8.5594  -16.8209    3.7993 H       1  LIG11       0.0265
     48 H           9.4479  -18.0057    2.7822 H       1  LIG11       0.0265
     49 H           9.9928  -19.9997    5.6888 H       1  LIG11       0.0263
     50 H          12.7125  -18.9679    4.6540 H       1  LIG11       0.0230
     51 H          12.4173  -20.4439    5.6189 H       1  LIG11       0.0230
     52 H          12.1894  -18.8298    6.3583 H       1  LIG11       0.0230
     53 O           2.6086  -18.3501    1.5210 O.3     1  LIG11      -0.5065
     54 H           9.5744  -17.6984    5.8524 H       1  LIG11       0.0265
     55 H          10.8568  -17.2678    4.6848 H       1  LIG11       0.0265
     56 H           3.5550  -14.2369    2.0132 H       1  LIG11       0.0296
     57 H          -1.1517  -14.1860    4.9410 H       1  LIG11       0.0287
     58 H           0.1561  -14.3086    6.1550 H       1  LIG11       0.0287
     59 H          -0.7764  -16.5734    6.8416 H       1  LIG11       0.0557
     60 H          -2.1209  -16.3291    5.6783 H       1  LIG11       0.0557
     61 H          -2.6831  -15.5308    7.8455 H       1  LIG11       0.2094
     62 H           5.3070  -18.4113    7.3619 H       1  LIG11       0.0238
     63 H           5.7131  -20.1310    7.5132 H       1  LIG11       0.0238
     64 H           4.0936  -19.6610    6.9693 H       1  LIG11       0.0238
     65 H           6.2385  -21.5309    5.5510 H       1  LIG11       0.0238
     66 H           5.9000  -20.9691    3.8975 H       1  LIG11       0.0238
     67 H           4.5742  -21.2800    5.0243 H       1  LIG11       0.0238
@<TRIPOS>BOND
     1    38     7    1
     2     7     1    1
     3    32     1    1
     4     1    22    1
     5     1     2    1
     6    26    22    1
     7    27     2    1
     8    23    53    1
     9    22    56    1
    10    22    21    1
    11    53    19    1
    12     2    28    1
    13     2     3    1
    14    25    21    1
    15    29     3    1
    16    21    20    1
    17    21     4    1
    18     3    30    1
    19     3     4    1
    20    19    20   ar
    21    19    18   ar
    22    48    14    1
    23    24    18    1
    24    45    13    1
    25    20     8   ar
    26    18    17   ar
    27     4    31    1
    28     4     5    1
    29    46    13    1
    30    14    47    1
    31    14    13    1
    32    14    15    1
    33    66    42    1
    34    33     5    1
    35    13    12    1
    36    40     9    1
    37     8    39    1
    38     8    16   ar
    39     5    34    1
    40     5    35    1
    41    17    16   ar
    42    17    11    1
    43    50    10    1
    44    55    15    1
    45    15     9    1
    46    15    54    1
    47    57    35    1
    48    42    67    1
    49    42    11    1
    50    42    65    1
    51     9    10    1
    52     9    49    1
    53    16     6    1
    54    12    11    1
    55    12    44    1
    56    12    43    1
    57    11    41    1
    58    10    51    1
    59    10    52    1
    60    35    58    1
    61    35    36    1
    62    60    36    1
    63    36    59    1
    64    36    37    1
    65    41    64    1
    66    41    62    1
    67    41    63    1
    68    37    61    1
