@<TRIPOS>MOLECULE
M4
 66 68 0 0 0
SMALL
GASTEIGER
Energy = 0

@<TRIPOS>ATOM
      1 C          -0.4759  -14.5589    4.7932 C.2     1  LIG11      -0.0478
      2 C          -0.6546  -13.3967    4.1475 C.2     1  LIG11      -0.0822
      3 C           0.2096  -12.9315    3.0005 C.3     1  LIG11      -0.0274
      4 C           1.0551  -14.0981    2.4243 C.3     1  LIG11       0.0091
      5 C           2.0814  -13.7036    1.3200 C.3     1  LIG11       0.1087
      6 H          -1.4613  -12.7305    4.4563 H       1  LIG11       0.0572
      7 C          -1.3905  -14.9757    5.9252 C.3     1  LIG11       0.0653
      8 C           3.1307  -15.8618    1.6896 C.ar    1  LIG11       0.1285
      9 C           1.3846  -12.9853    0.1304 C.3     1  LIG11      -0.0249
     10 C           3.2768  -12.8368    1.8136 C.3     1  LIG11      -0.0249
     11 C           5.4084  -18.9570    1.4094 C.3     1  LIG11      -0.0096
     12 C           6.8819  -18.8963    1.9506 C.3     1  LIG11      -0.0439
     13 C           7.1346  -19.2619    3.4468 C.3     1  LIG11      -0.0523
     14 C           8.6034  -19.1389    3.9309 C.3     1  LIG11      -0.0530
     15 C           9.0695  -17.6558    3.9188 C.3     1  LIG11      -0.0533
     16 C           4.0194  -16.8227    1.2030 C.ar    1  LIG11      -0.0157
     17 C           4.5348  -17.8317    2.0253 C.ar    1  LIG11      -0.0348
     18 C           4.2338  -17.7588    3.3925 C.ar    1  LIG11      -0.0160
     19 C           3.4527  -16.7204    3.9134 C.ar    1  LIG11       0.1241
     20 C           2.7990  -15.8347    3.0506 C.ar    1  LIG11       0.0394
     21 C           1.7503  -14.8428    3.5893 C.3     1  LIG11       0.0015
     22 C           0.6441  -15.5168    4.4490 C.3     1  LIG11      -0.0221
     23 H           0.8538  -12.1207    3.3726 H       1  LIG11       0.0312
     24 H          -0.4528  -12.5293    2.2177 H       1  LIG11       0.0312
     25 H           0.3531  -14.8083    1.9511 H       1  LIG11       0.0348
     26 H          -1.3471  -16.0739    6.0116 H       1  LIG11       0.0604
     27 H          -2.4313  -14.6743    5.7143 H       1  LIG11       0.0604
     28 H           0.6185  -13.6265   -0.3298 H       1  LIG11       0.0268
     29 H           2.1221  -12.7055   -0.6375 H       1  LIG11       0.0268
     30 H           0.8927  -12.0649    0.4810 H       1  LIG11       0.0268
     31 H           4.1378  -12.8877    1.1321 H       1  LIG11       0.0268
     32 H           3.6044  -13.1453    2.8167 H       1  LIG11       0.0268
     33 H           2.9628  -11.7827    1.8657 H       1  LIG11       0.0268
     34 O          -0.9743  -14.3607    7.1568 O.3     1  LIG11      -0.3907
     35 H           7.2991  -17.8932    1.7649 H       1  LIG11       0.0274
     36 H           7.5080  -19.5942    1.3704 H       1  LIG11       0.0274
     37 H           6.8225  -20.3126    3.5735 H       1  LIG11       0.0266
     38 H           6.5007  -18.6593    4.1148 H       1  LIG11       0.0266
     39 H           9.2596  -19.7130    3.2574 H       1  LIG11       0.0265
     40 H           8.6903  -19.5377    4.9546 H       1  LIG11       0.0265
     41 C           4.7657  -20.3122    1.8408 C.3     1  LIG11      -0.0558
     42 C           5.4095  -18.9604   -0.1566 C.3     1  LIG11      -0.0558
     43 H           8.6072  -17.1222    4.7661 H       1  LIG11       0.0265
     44 H           8.7360  -17.1750    2.9840 H       1  LIG11       0.0265
     45 H           4.2972  -16.7677    0.1571 H       1  LIG11       0.0657
     46 H           4.6034  -18.5032    4.0833 H       1  LIG11       0.0657
     47 H           2.2823  -14.1148    4.2238 H       1  LIG11       0.0358
     48 H           0.2210  -16.3769    3.9062 H       1  LIG11       0.0317
     49 C          10.6136  -17.5359    4.0314 C.3     1  LIG11      -0.0559
     50 C          11.1277  -18.1397    5.3651 C.3     1  LIG11      -0.0653
     51 H           1.0630  -15.8810    5.3979 H       1  LIG11       0.0317
     52 O           2.5865  -14.9398    0.7918 O.3     1  LIG11      -0.4855
     53 O           3.3265  -16.5501    5.2956 O.3     1  LIG11      -0.5064
     54 H          -1.5413  -14.5824    7.8886 H       1  LIG11       0.2098
     55 H           5.3190  -21.1740    1.4396 H       1  LIG11       0.0238
     56 H           3.7276  -20.3790    1.4802 H       1  LIG11       0.0238
     57 H           4.7592  -20.4069    2.9379 H       1  LIG11       0.0238
     58 H           5.7053  -17.9770   -0.5519 H       1  LIG11       0.0238
     59 H           4.4274  -19.2012   -0.5805 H       1  LIG11       0.0238
     60 H           6.1368  -19.6854   -0.5530 H       1  LIG11       0.0238
     61 H          10.9047  -16.4734    3.9792 H       1  LIG11       0.0263
     62 H          11.0887  -18.0658    3.1891 H       1  LIG11       0.0263
     63 H          10.8849  -19.2135    5.4131 H       1  LIG11       0.0230
     64 H          10.6544  -17.6348    6.2226 H       1  LIG11       0.0230
     65 H          12.2198  -18.0224    5.4442 H       1  LIG11       0.0230
     66 H           3.6535  -17.2716    5.8208 H       1  LIG11       0.2921
@<TRIPOS>BOND
     1    29     9    1
     2    59    42    1
     3    60    42    1
     4    58    42    1
     5    28     9    1
     6    42    11    1
     7     9    30    1
     8     9     5    1
     9    45    16    1
    10    52     5    1
    11    52     8    1
    12    31    10    1
    13    16     8   ar
    14    16    17   ar
    15     5    10    1
    16     5     4    1
    17    36    12    1
    18    11    41    1
    19    11    12    1
    20    11    17    1
    21    55    41    1
    22    56    41    1
    23     8    20   ar
    24    35    12    1
    25    10    33    1
    26    10    32    1
    27    41    57    1
    28    12    13    1
    29    25     4    1
    30    17    18   ar
    31    24     3    1
    32     4     3    1
    33     4    21    1
    34    44    15    1
    35     3    23    1
    36     3     2    1
    37    20    21    1
    38    20    19   ar
    39    62    49    1
    40    39    14    1
    41    18    19   ar
    42    18    46    1
    43    13    37    1
    44    13    14    1
    45    13    38    1
    46    21    47    1
    47    21    22    1
    48    48    22    1
    49    19    53    1
    50    15    14    1
    51    15    49    1
    52    15    43    1
    53    14    40    1
    54    61    49    1
    55    49    50    1
    56     2     6    1
    57     2     1    2
    58    22     1    1
    59    22    51    1
    60     1     7    1
    61    53    66    1
    62    50    63    1
    63    50    65    1
    64    50    64    1
    65    27     7    1
    66     7    26    1
    67     7    34    1
    68    34    54    1
