@<TRIPOS>MOLECULE
75x
 67 70 0 0 0
SMALL
USER_CHARGES

@<TRIPOS>ATOM
      1 C1          4.5807   -7.9053   13.8326 C.ar    1  TOS11      -0.2736
      2 C2          6.0813   -5.8375   14.9373 C.ar    1  TOS11      -0.2926
      3 ****        9.8525   -7.9129   13.3840 H       1  TOS11       0.1891
      4 ****        8.5537   -9.8118   12.4926 H       1  TOS11       0.1735
      5 ****        3.9387   -6.8632   14.5043 C.ar    1  TOS11      -0.0501
      6 ****        4.6907   -5.8280   15.0656 C.ar    1  TOS11      -0.0898
      7 ****        3.9554   -8.6617   13.3801 H       1  TOS11       0.1800
      8 ****        6.8107   -9.2248   10.3468 H       2  APM22       0.0897
      9 ****        5.2919  -10.4102    8.6303 H       2  APM22       0.1759
     10 ****        6.1445   -8.9953    8.0003 H       2  APM22       0.1185
     11 ****        2.8220  -10.3646    8.6667 H       2  APM22       0.2191
     12 ****        5.0045   -6.7709    7.7682 H       2  APM22       0.1765
     13 ****        2.8966   -5.6320    7.1782 H       2  APM22       0.2062
     14 ****        0.7478   -6.8482    7.3054 H       2  APM22       0.1632
     15 ****        3.9960   -9.7988   11.0050 H       2  APM22       0.4163
     16 ****       -1.5733   -9.5059    7.2342 H       2  APM22       0.5720
     17 ****       -0.5604   -8.1640    6.6737 H       2  APM22       0.5608
     18 ****        1.0082  -10.8921    9.2447 H       2  APM22       0.5578
     19 ****       -0.6618  -11.0912    8.6844 H       2  APM22       0.5767
     20 ****        7.4775   -6.1407    8.3428 H       3  PIP33       0.1316
     21 ****        7.8282   -7.7198    9.0548 H       3  PIP33       0.1039
     22 ****        9.6771   -6.1014    9.4622 H       3  PIP33       0.1835
     23 ****        8.9447   -6.6558   10.9918 H       3  PIP33       0.0956
     24 ****       10.8141   -3.7262   11.1590 C.3     4  SULFONYL4   -0.6855
     25 S1          9.4551   -3.4139   10.0198 S.O2    4  SULFONYL4    2.2404
     26 ****        7.0117   -3.4035   11.4064 H       3  PIP33       0.1239
     27 ****        7.2843   -4.9802   12.1911 H       3  PIP33       0.0522
     28 ****        5.0921   -4.9768   11.0514 H       3  PIP33       0.1191
     29 ****        5.8421   -4.5075    9.5109 H       3  PIP33       0.0942
     30 S           5.7723  -10.4650   12.5062 S.O2    1  TOS11       2.3116
     31 O1          6.7297  -11.4360   12.0094 O.2     1  TOS11      -0.9343
     32 O2          4.7756  -10.9004   13.4682 O.2     1  TOS11      -0.9403
     33 C1          6.6423   -9.0343   13.1407 C.ar    1  TOS11      -0.7153
     34 C2          5.9784   -7.9545   13.7461 C.ar    1  TOS11       0.1979
     35 C3          6.7248   -6.8910   14.2766 C.ar    1  TOS11       0.1472
     36 C4          8.1187   -6.8785   14.1445 C.ar    1  TOS11      -0.1036
     37 C5          8.7724   -7.9290   13.4978 C.ar    1  TOS11      -0.2703
     38 C6          8.0332   -9.0019   12.9967 C.ar    1  TOS11       0.1271
     39 ****        6.6551   -5.0176   15.3567 H       1  TOS11       0.1928
     40 C           5.5297   -7.4751   10.4615 C.2     2  APM22       0.5853
     41 CA          5.7627   -8.9433   10.1694 C.3     2  APM22       0.3299
     42 CB          5.3695   -9.3148    8.7124 C.3     2  APM22      -0.4388
     43 CG          4.0535   -8.6392    8.2942 C.ar    2  APM22       0.2098
     44 CD1         2.8371   -9.3303    8.3403 C.ar    2  APM22      -0.1704
     45 CD2         4.0685   -7.3128    7.8480 C.ar    2  APM22      -0.0516
     46 CE1         1.6449   -8.7044    7.9566 C.ar    2  APM22      -0.3688
     47 CE2         2.8794   -6.6698    7.4983 C.ar    2  APM22      -0.1799
     48 CZ          1.6686   -7.3627    7.5612 C.ar    2  APM22      -0.0568
     49 CF          0.3329   -9.4653    7.9600 C.3     2  APM22       1.1360
     50 O           4.5023   -7.2483   11.0815 O.2     2  APM22      -0.6086
     51 N           4.9876   -9.7280   11.1252 N.3     2  APM22      -1.0490
     52 NG1        -0.6675   -9.0138    7.2470 N.3     2  APM22      -1.0553
     53 NG2         0.2197  -10.5570    8.6721 N.3     2  APM22      -1.0307
     54 N1          6.3557   -6.4573   10.0785 N.am    3  PIP33      -0.4850
     55 C2          7.5778   -6.6810    9.2974 C.3     3  PIP33       0.0205
     56 C3          8.7642   -6.0707   10.0775 C.3     3  PIP33      -0.0950
     57 N4          8.4043   -4.7105   10.4515 N.3     3  PIP33      -0.8089
     58 C5          7.1898   -4.4729   11.2192 C.3     3  PIP33       0.1095
     59 C6          6.0017   -5.0803   10.4382 C.3     3  PIP33       0.0117
     60 O           8.8489   -2.1448   10.3709 O.2     4  SULFONYL4   -0.9038
     61 O           9.9286   -3.6184    8.6647 O.2     4  SULFONYL4   -0.9061
     62 ****       10.4393   -3.6952   12.1924 H       4  SULFONYL4    0.1734
     63 ****       11.5842   -2.9528   11.0259 H       4  SULFONYL4    0.2353
     64 ****       11.2555   -4.7137   10.9622 H       4  SULFONYL4    0.1760
     65 ****        2.8570   -6.8547   14.5898 H       1  TOS11       0.1582
     66 ****        4.1967   -5.0203   15.5967 H       1  TOS11       0.1602
     67 ****        8.7065   -6.0546   14.5379 H       1  TOS11       0.1840
@<TRIPOS>BOND
     1    34     1   ar
     2    35     2   ar
     3    37     3    1
     4    38     4    1
     5     1     5   ar
     6     2     6   ar
     7     6     5   ar
     8    41     8    1
     9    42     9    1
    10    42    10    1
    11    44    11    1
    12    45    12    1
    13    47    13    1
    14    48    14    1
    15    51    15    1
    16    52    16    1
    17    52    17    1
    18    53    18    1
    19    53    19    1
    20    55    20    1
    21    55    21    1
    22    56    22    1
    23    56    23    1
    24    57    25    1
    25    25    60    2
    26    58    26    1
    27    58    27    1
    28    59    28    1
    29    59    29    1
    30    33    30    1
    31    30    32    2
    32    30    31    2
    33    33    38   ar
    34    34    33   ar
    35    35    34   ar
    36    36    35   ar
    37     1     7    1
    38    36    37   ar
    39    37    38   ar
    40    40    50    2
    41    41    40    1
    42    41    51    1
    43    42    41    1
    44    43    42    1
    45    43    45   ar
    46    44    43   ar
    47    46    44   ar
    48    49    46    1
    49    46    48   ar
    50    48    47   ar
    51    47    45   ar
    52    49    53    1
    53    49    52    1
    54    54    59    1
    55    55    54    1
    56    56    55    1
    57    57    56    1
    58    57    58    1
    59    58    59    1
    60    40    54   am
    61    51    30    1
    62    25    61    2
    63    25    24    1
    64    24    62    1
    65    24    63    1
    66    24    64    1
    67     2    39    1
    68     5    65    1
    69     6    66    1
    70    36    67    1
