@<TRIPOS>MOLECULE
80x
 57 59 0 0 0
SMALL
USER_CHARGES

@<TRIPOS>ATOM
      1 ****        3.8480   -8.6776   14.0504 H       1  TOS11       0.1861
      2 ****        4.0591   -6.5223   15.2320 H       1  TOS11       0.1952
      3 ****        8.2735   -6.4754   14.3845 H       1  TOS11       0.2117
      4 ****        8.0556   -8.6294   13.1922 H       1  TOS11       0.1814
      5 ****        6.3228   -4.9625   15.5375 C.3     1  TOS11      -0.3540
      6 ****        5.3621   -4.5901   15.9259 H       1  TOS11       0.1129
      7 ****        6.7082   -4.2337   14.8059 H       1  TOS11       0.1082
      8 ****        6.7714   -9.2940   10.4061 H       2  APM22       0.1589
      9 ****        5.2367  -10.4709    8.6695 H       2  APM22       0.1805
     10 ****        6.1472   -9.0758    8.0849 H       2  APM22       0.1260
     11 ****        2.7946  -10.3540    8.5405 H       2  APM22       0.2021
     12 ****        5.1027   -6.8431    7.7423 H       2  APM22       0.1728
     13 ****        3.0805   -5.6897    6.9277 H       2  APM22       0.2028
     14 ****        0.8910   -6.7539    7.0972 H       2  APM22       0.1644
     15 ****        4.0117   -9.9906   11.0624 H       2  APM22       0.3773
     16 ****       -1.5956   -9.3956    7.0226 H       2  APM22       0.5730
     17 ****       -0.5562   -8.1040    6.4234 H       2  APM22       0.5566
     18 ****        0.8436  -10.8159    9.1226 H       2  APM22       0.5434
     19 ****       -0.7910  -10.9520    8.4761 H       2  APM22       0.5738
     20 ****        7.5729   -6.2398    8.4471 H       3  PIP33       0.1164
     21 ****        7.8519   -7.8242    9.1820 H       3  PIP33       0.0655
     22 ****        9.6643   -6.2371    9.8209 H       3  PIP33       0.1278
     23 ****        8.7303   -6.7527   11.2559 H       3  PIP33       0.0462
     24 ****        6.9087   -3.5173   11.4676 H       3  PIP33       0.0820
     25 ****        7.0753   -5.1168   12.2368 H       3  PIP33       0.0111
     26 ****        4.9693   -5.0289   10.8894 H       3  PIP33       0.0783
     27 ****        5.8956   -4.6011    9.4379 H       3  PIP33       0.0721
     28 S           5.7426  -10.3424   12.6810 S.O2    1  TOS11       2.2272
     29 O1          7.0522  -10.8808   12.3707 O.2     1  TOS11      -0.9153
     30 O2          4.8035  -11.1697   13.4124 O.2     1  TOS11      -0.9382
     31 C1          5.9354   -8.7989   13.5390 C.ar    1  TOS11      -0.4863
     32 C2          4.8142   -8.1948   14.1171 C.ar    1  TOS11      -0.0498
     33 C3          4.9357   -6.9714   14.7800 C.ar    1  TOS11      -0.2311
     34 C4          6.1789   -6.3313   14.8583 C.ar    1  TOS11       0.2758
     35 C5          7.3008   -6.9501   14.3008 C.ar    1  TOS11      -0.2620
     36 C6          7.1776   -8.1718   13.6343 C.ar    1  TOS11      -0.0638
     37 ****        7.0332   -5.0398   16.3737 H       1  TOS11       0.1188
     38 C           5.4875   -7.5588   10.5126 C.2     2  APM22       0.5929
     39 CA          5.7240   -9.0233   10.2357 C.3     2  APM22       0.1986
     40 CB          5.3346   -9.3764    8.7647 C.3     2  APM22      -0.4313
     41 CG          4.0655   -8.6678    8.2513 C.ar    2  APM22       0.1797
     42 CD1         2.8192   -9.3196    8.2285 C.ar    2  APM22      -0.1415
     43 CD2         4.1478   -7.3575    7.7740 C.ar    2  APM22      -0.0464
     44 CE1         1.6538   -8.6673    7.7963 C.ar    2  APM22      -0.3656
     45 CE2         3.0073   -6.6962    7.3220 C.ar    2  APM22      -0.1713
     46 CZ          1.7591   -7.3339    7.3798 C.ar    2  APM22      -0.0615
     47 CF          0.3057   -9.3779    7.7740 C.3     2  APM22       1.1227
     48 O           4.4672   -7.3191   11.1467 O.2     2  APM22      -0.6121
     49 N           4.9912   -9.8212   11.2146 N.3     2  APM22      -0.9285
     50 NG1        -0.6751   -8.9274    7.0294 N.3     2  APM22      -1.0485
     51 NG2         0.1109  -10.4505    8.5001 N.3     2  APM22      -1.0068
     52 N1          6.3128   -6.5440   10.0972 N.am    3  PIP33      -0.5062
     53 C2          7.5864   -6.7837    9.4026 C.3     3  PIP33       0.0254
     54 C3          8.6762   -6.1624   10.3176 C.3     3  PIP33       0.0898
     55 O4          8.3689   -4.7651   10.6015 O.3     3  PIP33      -0.4939
     56 C5          7.0830   -4.5901   11.2633 C.3     3  PIP33       0.2343
     57 C6          5.9405   -5.1585   10.3830 C.3     3  PIP33       0.0438
@<TRIPOS>BOND
     1    32     1    1
     2    33     2    1
     3    35     3    1
     4    36     4    1
     5    34     5    1
     6     5     6    1
     7     5     7    1
     8    39     8    1
     9    40     9    1
    10    40    10    1
    11    42    11    1
    12    43    12    1
    13    45    13    1
    14    46    14    1
    15    49    15    1
    16    50    16    1
    17    50    17    1
    18    51    18    1
    19    51    19    1
    20    53    20    1
    21    53    21    1
    22    54    22    1
    23    54    23    1
    24    56    24    1
    25    56    25    1
    26    57    26    1
    27    57    27    1
    28    31    28    1
    29    28    30    2
    30    28    29    2
    31    31    36   ar
    32    32    31   ar
    33    33    32   ar
    34    34    33   ar
    35     5    37    1
    36    34    35   ar
    37    35    36   ar
    38    38    48    2
    39    39    38    1
    40    39    49    1
    41    40    39    1
    42    41    40    1
    43    41    43   ar
    44    42    41   ar
    45    44    42   ar
    46    47    44    1
    47    44    46   ar
    48    46    45   ar
    49    45    43   ar
    50    47    51    1
    51    47    50    1
    52    52    57    1
    53    53    52    1
    54    54    53    1
    55    55    54    1
    56    55    56    1
    57    56    57    1
    58    38    52   am
    59    49    28    1
