@<TRIPOS>MOLECULE
86x
 74 77 0 0 0
SMALL
USER_CHARGES

@<TRIPOS>ATOM
      1 C1          3.8467   -6.3900   15.2869 C.ar    4  NAPHTHALENE4   -0.2591
      2 C2          3.9965   -5.1766   15.9626 C.ar    4  NAPHTHALENE4   -0.1100
      3 C3          5.2534   -4.5749   16.0423 C.ar    4  NAPHTHALENE4   -0.0891
      4 C4          6.3525   -5.1887   15.4335 C.ar    4  NAPHTHALENE4   -0.2478
      5 ****        6.7801   -9.2976   10.3892 H       2  APM22       0.1442
      6 ****        5.2568  -10.4950    8.6499 H       2  APM22       0.1785
      7 ****        6.1694   -9.1182    8.0270 H       2  APM22       0.1342
      8 ****        2.8034  -10.3946    8.5106 H       2  APM22       0.2044
      9 ****        5.1108   -6.8634    7.7294 H       2  APM22       0.1642
     10 ****        3.0604   -5.6586    7.0774 H       2  APM22       0.2038
     11 ****        0.8652   -6.7636    7.2372 H       2  APM22       0.1610
     12 ****        3.9667   -9.9207   10.9644 H       2  APM22       0.3831
     13 ****       -1.5705   -9.3639    7.0729 H       2  APM22       0.5690
     14 ****       -0.5163   -8.0512    6.5308 H       2  APM22       0.5564
     15 ****        0.9169  -10.8749    9.0831 H       2  APM22       0.5422
     16 ****       -0.7418  -10.9940    8.4791 H       2  APM22       0.5721
     17 ****        7.5635   -6.1803    8.4275 H       3  PIP33       0.1107
     18 ****        7.8003   -7.7929    9.0939 H       3  PIP33       0.0840
     19 ****        9.6622   -6.3110    9.7922 H       3  PIP33       0.0539
     20 ****        8.7109   -6.8499   11.2038 H       3  PIP33       0.0136
     21 ****        8.4631   -4.1389    9.7519 H       3  PIP33       0.1051
     22 C           9.4907   -4.2532   11.6353 C.2     5  CO25        0.7287
     23 ****        6.8201   -3.5029   11.4952 H       3  PIP33       0.0375
     24 ****        6.9682   -5.1018   12.2706 H       3  PIP33       0.0199
     25 ****        4.9391   -5.0398   10.8609 H       3  PIP33       0.1319
     26 ****        5.8855   -4.5750    9.4396 H       3  PIP33       0.1091
     27 S           5.6674  -10.4205   12.6196 S.O2    1  TOS11       2.2733
     28 O1          6.9555  -11.0170   12.3164 O.2     1  TOS11      -0.9285
     29 O2          4.6730  -11.1991   13.3365 O.2     1  TOS11      -0.9542
     30 C5          7.3208   -7.0656   14.2153 C.ar    4  NAPHTHALENE4   -0.2591
     31 C6          7.1641   -8.2793   13.5404 C.ar    4  NAPHTHALENE4   -0.0921
     32 C7          5.9068   -8.8759   13.4622 C.ar    4  NAPHTHALENE4   -0.4824
     33 C8          4.8044   -8.2352   14.0337 C.ar    4  NAPHTHALENE4   -0.1654
     34 C9          4.9518   -7.0162   14.7013 C.ar    4  NAPHTHALENE4    0.1600
     35 C10         6.2159   -6.4191   14.7816 C.ar    4  NAPHTHALENE4    0.1824
     36 H1          2.8605   -6.8378   15.2293 H       4  NAPHTHALENE4    0.1919
     37 C           5.4898   -7.5543   10.4737 C.2     2  APM22       0.6494
     38 CA          5.7341   -9.0222   10.1836 C.3     2  APM22       0.2376
     39 CB          5.3626   -9.4014    8.7189 C.3     2  APM22      -0.4458
     40 CG          4.0825   -8.6949    8.2393 C.ar    2  APM22       0.1643
     41 CD1         2.8459   -9.3491    8.2282 C.ar    2  APM22      -0.1300
     42 CD2         4.1555   -7.3713    7.7928 C.ar    2  APM22      -0.0238
     43 CE1         1.6747   -8.6811    7.8402 C.ar    2  APM22      -0.3734
     44 CE2         2.9972   -6.6896    7.4148 C.ar    2  APM22      -0.1846
     45 CZ          1.7591   -7.3316    7.4738 C.ar    2  APM22      -0.0473
     46 CF          0.3339   -9.3929    7.8108 C.3     2  APM22       1.1078
     47 O           4.4756   -7.3338   11.1185 O.2     2  APM22      -0.6354
     48 N           4.9468   -9.8141   11.1254 N.3     2  APM22      -0.9691
     49 NG1        -0.6491   -8.9018    7.0959 N.3     2  APM22      -1.0441
     50 NG2         0.1599  -10.4942    8.4985 N.3     2  APM22      -0.9998
     51 N1          6.3009   -6.5309   10.0661 N.am    3  PIP33      -0.4208
     52 C2          7.5658   -6.7581    9.3662 C.3     3  PIP33      -0.0738
     53 C3          8.6851   -6.2254   10.2963 C.3     3  PIP33       0.0610
     54 C4          8.4255   -4.7418   10.6782 C.3     3  PIP33      -0.2118
     55 C5          7.0159   -4.5719   11.3073 C.3     3  PIP33       0.1404
     56 C6          5.9225   -5.1536   10.3768 C.3     3  PIP33      -0.1625
     57 O          10.2205   -3.3271   11.3148 O.2     5  CO25       -0.6024
     58 O           9.5565   -4.9043   12.8126 O.3     5  CO25       -0.5344
     59 ****       10.6061   -4.4955   13.7312 C.3     5  CO25        0.5155
     60 H2          3.1368   -4.6970   16.4237 H       4  NAPHTHALENE4    0.1638
     61 H3          5.3730   -3.6369   16.5784 H       4  NAPHTHALENE4    0.1693
     62 H4          7.3046   -4.6924   15.4683 H       4  NAPHTHALENE4    0.1574
     63 H5          8.3119   -6.6344   14.2930 H       4  NAPHTHALENE4    0.2093
     64 H6          8.0199   -8.7568   13.0766 H       4  NAPHTHALENE4    0.1860
     65 H8          3.8301   -8.6976   13.9515 H       4  NAPHTHALENE4    0.2162
     66 C66         9.9607   -4.0214   15.0625 C.3     5  CO25       -0.5328
     67 ****       11.2580   -3.6767   13.3672 H       5  CO25        0.0590
     68 C68        11.4945   -5.7321   14.0289 C.3     5  CO25       -0.4833
     69 ****       10.7119   -3.5449   15.7137 H       5  CO25        0.1478
     70 ****        9.5391   -4.8734   15.6167 H       5  CO25        0.1577
     71 ****        9.1633   -3.2902   14.8545 H       5  CO25        0.1343
     72 ****       12.2805   -5.4665   14.7521 H       5  CO25        0.1481
     73 ****       11.9637   -6.0890   13.1023 H       5  CO25        0.1058
     74 ****       10.8955   -6.5533   14.4515 H       5  CO25        0.1386
@<TRIPOS>BOND
     1    27    32    1
     2    30    31   ar
     3    30    35   ar
     4    30    63    1
     5    35     4   ar
     6    35    34   ar
     7    34     1   ar
     8    38     5    1
     9    39     6    1
    10    39     7    1
    11    41     8    1
    12    42     9    1
    13    44    10    1
    14    45    11    1
    15    48    12    1
    16    49    13    1
    17    49    14    1
    18    50    15    1
    19    50    16    1
    20    52    17    1
    21    52    18    1
    22    53    19    1
    23    53    20    1
    24    54    21    1
    25    22    57    2
    26    55    23    1
    27    55    24    1
    28    56    25    1
    29    56    26    1
    30    34    33   ar
    31    27    29    2
    32    27    28    2
    33    33    32   ar
    34    33    65    1
    35    32    31   ar
    36    31    64    1
    37     1     2   ar
    38     1    36    1
    39    37    47    2
    40    38    37    1
    41    38    48    1
    42    39    38    1
    43    40    39    1
    44    40    42   ar
    45    41    40   ar
    46    43    41   ar
    47    46    43    1
    48    43    45   ar
    49    45    44   ar
    50    44    42   ar
    51    46    50    1
    52    46    49    1
    53    51    56    1
    54    52    51    1
    55    53    52    1
    56    54    53    1
    57    54    55    1
    58    55    56    1
    59    37    51   am
    60    48    27    1
    61    22    58    1
    62    54    22    1
    63    58    59    1
    64     2     3   ar
    65     2    60    1
    66     3     4   ar
    67     3    61    1
    68     4    62    1
    69    59    66    1
    70    59    67    1
    71    59    68    1
    72    66    69    1
    73    66    70    1
    74    66    71    1
    75    68    72    1
    76    68    73    1
    77    68    74    1
