@<TRIPOS>MOLECULE
cpd13
 48 50 0 0 0
SMALL
GASTEIGER
Energy = 0

@<TRIPOS>ATOM
      1 C          -0.9156    2.6036   -0.9804 C.ar    1  LIG11       0.1119
      2 N          -1.1357    3.8921   -0.7158 N.ar    1  LIG11      -0.2205
      3 C          -2.2369    4.2515   -1.4814 C.ar    1  LIG11       0.1527
      4 C          -2.6672    3.1616   -2.1960 C.ar    1  LIG11       0.0831
      5 N          -1.8153    2.1190   -1.8572 N.ar    1  LIG11      -0.3239
      6 C          -1.9894   -2.0046    0.8849 C.ar    1  LIG11      -0.0140
      7 C          -0.9759   -2.1020   -0.0700 C.ar    1  LIG11      -0.0536
      8 C          -0.9417   -1.2337   -1.1598 C.ar    1  LIG11      -0.0563
      9 C          -1.9235   -0.2534   -1.3144 C.ar    1  LIG11      -0.0277
     10 C          -2.9838   -0.2137   -0.4070 C.ar    1  LIG11      -0.0563
     11 C          -3.0217   -1.0883    0.6778 C.ar    1  LIG11      -0.0536
     12 C          -1.0138   -3.3041    2.8785 C.ar    1  LIG11       0.2186
     13 C          -2.0125   -2.9080    2.0725 C.ar    1  LIG11       0.0344
     14 C          -3.2173   -3.5747    2.5787 C.ar    1  LIG11      -0.0153
     15 C          -2.8192   -4.3119    3.6195 C.ar    1  LIG11       0.0935
     16 O          -1.4795   -4.1749    3.8188 O.2     1  LIG11      -0.4557
     17 C          -1.8293    0.7802   -2.4097 C.3     1  LIG11       0.0498
     18 C           0.4020   -2.8882    2.8470 C.2     1  LIG11       0.3731
     19 O           0.8003   -1.7320    2.3108 O.3     1  LIG11      -0.4750
     20 O           1.2200   -3.6157    3.3528 O.2     1  LIG11      -0.2416
     21 CL         -2.9205    5.8214   -1.5297 Cl      1  LIG11      -0.0600
     22 C          -3.8113    3.0868   -3.1683 C.3     1  LIG11       0.0872
     23 O          -3.3552    2.8376   -4.4812 O.3     1  LIG11      -0.3889
     24 C           0.2161    1.8598   -0.3284 C.3     1  LIG11       0.0057
     25 C           1.1485    2.7418    0.5164 C.3     1  LIG11      -0.0465
     26 C           2.2749    1.9173    1.1616 C.3     1  LIG11      -0.0555
     27 C           3.2094    2.7918    2.0080 C.3     1  LIG11      -0.0653
     28 H          -0.1981   -2.8785    0.0217 H       1  LIG11       0.0624
     29 H          -0.1123   -1.3079   -1.8828 H       1  LIG11       0.0621
     30 H          -3.7846    0.5351   -0.5303 H       1  LIG11       0.0621
     31 H          -3.8510   -1.0120    1.4012 H       1  LIG11       0.0624
     32 H          -4.2424   -3.4929    2.1823 H       1  LIG11       0.0655
     33 H          -3.3670   -4.9798    4.3036 H       1  LIG11       0.1030
     34 H          -0.9121    0.6478   -3.0291 H       1  LIG11       0.0542
     35 H          -2.6986    0.6288   -3.0880 H       1  LIG11       0.0542
     36 H          -0.0120   -1.2414    2.1254 H       1  LIG11       0.2955
     37 H          -4.4062    4.0301   -3.1886 H       1  LIG11       0.0623
     38 H          -4.4977    2.2568   -2.8763 H       1  LIG11       0.0623
     39 H          -2.9165    3.6129   -4.7904 H       1  LIG11       0.2099
     40 H          -0.2191    1.0725    0.3295 H       1  LIG11       0.0343
     41 H           0.8106    1.3582   -1.1275 H       1  LIG11       0.0343
     42 H           1.5961    3.5368   -0.1279 H       1  LIG11       0.0269
     43 H           0.5615    3.2467    1.3213 H       1  LIG11       0.0269
     44 H           1.8332    1.1199    1.8074 H       1  LIG11       0.0263
     45 H           2.8696    1.4074    0.3654 H       1  LIG11       0.0263
     46 H           4.0205    2.1808    2.4688 H       1  LIG11       0.0230
     47 H           3.6917    3.5823    1.3877 H       1  LIG11       0.0230
     48 H           2.6529    3.2936    2.8332 H       1  LIG11       0.0230
@<TRIPOS>BOND
     1    39    23    1
     2    23    22    1
     3    37    22    1
     4    22    38    1
     5    22     4    1
     6    35    17    1
     7    34    17    1
     8    17     5    1
     9    17     9    1
    10     4     5   ar
    11     4     3   ar
    12    29     8    1
    13     5     1   ar
    14    21     3    1
    15     3     2   ar
    16     9     8   ar
    17     9    10   ar
    18     8     7   ar
    19    41    24    1
    20     1     2   ar
    21     1    24    1
    22    30    10    1
    23    10    11   ar
    24    24    40    1
    25    24    25    1
    26    42    25    1
    27     7    28    1
    28     7     6   ar
    29    45    26    1
    30    25    26    1
    31    25    43    1
    32    11     6   ar
    33    11    31    1
    34     6    13    1
    35    26    44    1
    36    26    27    1
    37    47    27    1
    38    27    46    1
    39    27    48    1
    40    13    14   ar
    41    13    12   ar
    42    36    19    1
    43    32    14    1
    44    19    18    1
    45    14    15   ar
    46    18    12    1
    47    18    20    2
    48    12    16   ar
    49    15    16   ar
    50    15    33    1
