@<TRIPOS>MOLECULE
cpd3
 49 51 0 0 0
SMALL
GASTEIGER
Energy = 0

@<TRIPOS>ATOM
      1 C          -0.9296    2.6477   -0.9256 C.ar    1  LIG11       0.1355
      2 N          -1.3300    3.8714   -0.5725 N.ar    1  LIG11      -0.2163
      3 C          -2.4517    4.1553   -1.3385 C.ar    1  LIG11       0.1531
      4 C          -2.7244    3.0824   -2.1481 C.ar    1  LIG11       0.0833
      5 CL         -3.3384    5.6191   -1.2702 Cl      1  LIG11      -0.0600
      6 C          -3.8382    2.9374   -3.1474 C.3     1  LIG11       0.0873
      7 O          -3.3386    2.8382   -4.4643 O.3     1  LIG11      -0.3889
      8 C           0.2324    1.9804   -0.3307 C.2     1  LIG11      -0.0230
      9 C           0.8416    2.4257    0.7790 C.2     1  LIG11      -0.0808
     10 C           2.0325    1.7487    1.4115 C.3     1  LIG11      -0.0372
     11 C           3.2705    2.6516    1.3538 C.3     1  LIG11      -0.0618
     12 N          -1.7425    2.1401   -1.8737 N.ar    1  LIG11      -0.3204
     13 C          -1.6530    0.8071   -2.4344 C.3     1  LIG11       0.0501
     14 C          -1.8514   -0.2336   -1.3579 C.ar    1  LIG11      -0.0277
     15 C          -0.9065   -1.2393   -1.1460 C.ar    1  LIG11      -0.0563
     16 C          -1.0267   -2.1065   -0.0617 C.ar    1  LIG11      -0.0537
     17 C          -2.1000   -1.9928    0.8239 C.ar    1  LIG11      -0.0171
     18 C          -3.0932   -1.0486    0.5582 C.ar    1  LIG11      -0.0537
     19 C          -2.9683   -0.1761   -0.5219 C.ar    1  LIG11      -0.0563
     20 C          -2.1787   -2.8664    2.0417 C.ar    1  LIG11      -0.0039
     21 C          -3.3572   -3.5768    2.2861 C.ar    1  LIG11      -0.0532
     22 C          -3.4217   -4.5223    3.3083 C.ar    1  LIG11      -0.0611
     23 C          -2.2993   -4.7737    4.0940 C.ar    1  LIG11      -0.0609
     24 C          -1.1294   -4.0469    3.8807 C.ar    1  LIG11      -0.0472
     25 C          -1.0805   -3.0679    2.8860 C.ar    1  LIG11       0.0665
     26 C           0.1441   -2.1956    2.8047 C.2     1  LIG11       0.3374
     27 O           0.0534   -0.8916    2.5133 O.3     1  LIG11      -0.4771
     28 O           1.2404   -2.6572    3.0099 O.2     1  LIG11      -0.2451
     29 H          -4.4222    2.0123   -2.9282 H       1  LIG11       0.0623
     30 H          -4.5437    3.8010   -3.1160 H       1  LIG11       0.0623
     31 H          -2.9893    3.6790   -4.7091 H       1  LIG11       0.2099
     32 H           0.6233    1.0707   -0.8110 H       1  LIG11       0.0651
     33 H           0.4731    3.3367    1.2810 H       1  LIG11       0.0573
     34 H           1.7831    1.5079    2.4724 H       1  LIG11       0.0305
     35 H           2.2568    0.7814    0.9015 H       1  LIG11       0.0305
     36 H           4.1509    2.1528    1.8223 H       1  LIG11       0.0233
     37 H           3.5391    2.8951    0.2993 H       1  LIG11       0.0233
     38 H           3.0980    3.6107    1.8956 H       1  LIG11       0.0233
     39 H          -2.4236    0.6403   -3.2198 H       1  LIG11       0.0542
     40 H          -0.6640    0.7017   -2.9374 H       1  LIG11       0.0542
     41 H          -0.0367   -1.3344   -1.8175 H       1  LIG11       0.0621
     42 H          -0.2638   -2.8894    0.0870 H       1  LIG11       0.0624
     43 H          -3.9560   -0.9419    1.2372 H       1  LIG11       0.0624
     44 H          -3.7452    0.5879   -0.6922 H       1  LIG11       0.0621
     45 H          -4.2364   -3.4399    1.6340 H       1  LIG11       0.0624
     46 H          -4.3533   -5.0886    3.4802 H       1  LIG11       0.0618
     47 H          -2.3423   -5.5332    4.8934 H       1  LIG11       0.0618
     48 H          -0.2621   -4.2241    4.5393 H       1  LIG11       0.0626
     49 H          -0.8865   -0.6622    2.5148 H       1  LIG11       0.2954
@<TRIPOS>BOND
     1    31     7    1
     2     7     6    1
     3    39    13    1
     4     6    30    1
     5     6    29    1
     6     6     4    1
     7    40    13    1
     8    13    12    1
     9    13    14    1
    10     4    12   ar
    11     4     3   ar
    12    12     1   ar
    13    41    15    1
    14    14    15   ar
    15    14    19   ar
    16     3     5    1
    17     3     2   ar
    18    15    16   ar
    19     1     2   ar
    20     1     8    1
    21    32     8    1
    22    44    19    1
    23    19    18   ar
    24     8     9    2
    25    16    42    1
    26    16    17   ar
    27    37    11    1
    28    18    17   ar
    29    18    43    1
    30     9    33    1
    31     9    10    1
    32    17    20    1
    33    35    10    1
    34    11    10    1
    35    11    36    1
    36    11    38    1
    37    10    34    1
    38    45    21    1
    39    20    21   ar
    40    20    25   ar
    41    21    22   ar
    42    27    49    1
    43    27    26    1
    44    26    25    1
    45    26    28    2
    46    25    24   ar
    47    22    46    1
    48    22    23   ar
    49    24    23   ar
    50    24    48    1
    51    23    47    1
