@<TRIPOS>MOLECULE
cpd9
 52 54 0 0 0
SMALL
GASTEIGER
Energy = 0

@<TRIPOS>ATOM
      1 N          -1.4059    2.1505   -2.1343 N.ar    1  LIG11      -0.3162
      2 C          -0.4394    2.6822   -1.3634 C.ar    1  LIG11       0.1695
      3 N          -0.7485    3.9257   -0.9916 N.ar    1  LIG11      -0.2299
      4 C          -1.9845    4.1991   -1.5619 C.ar    1  LIG11       0.0521
      5 C          -2.4043    3.1038   -2.2709 C.ar    1  LIG11       0.0648
      6 C          -1.4372    0.7889   -2.6203 C.3     1  LIG11       0.0505
      7 S           1.0662    1.8980   -0.8942 S.3     1  LIG11      -0.0877
      8 C           0.9207    2.2365    0.8902 C.3     1  LIG11       0.0011
      9 C           2.0637    1.5153    1.6242 C.3     1  LIG11      -0.0438
     10 H          -2.5069    5.1615   -1.4418 H       1  LIG11       0.0849
     11 C          -3.6762    2.9818   -3.0598 C.3     1  LIG11       0.0858
     12 O          -3.4154    2.8273   -4.4387 O.3     1  LIG11      -0.3889
     13 C           2.0224    1.7826    3.1383 C.3     1  LIG11      -0.0552
     14 C           3.1132    1.0030    3.8846 C.3     1  LIG11      -0.0653
     15 C          -1.9861   -1.9272    0.7064 C.ar    1  LIG11      -0.0171
     16 C          -2.9876   -1.0225    0.3504 C.ar    1  LIG11      -0.0537
     17 C          -2.8058   -0.1504   -0.7218 C.ar    1  LIG11      -0.0563
     18 C          -1.6316   -0.1795   -1.4767 C.ar    1  LIG11      -0.0277
     19 C          -0.6472   -1.1116   -1.1426 C.ar    1  LIG11      -0.0563
     20 C          -0.8170   -1.9677   -0.0556 C.ar    1  LIG11      -0.0537
     21 C          -2.4352   -4.8779    3.7963 C.ar    1  LIG11      -0.0609
     22 C          -1.2927   -4.0804    3.7706 C.ar    1  LIG11      -0.0472
     23 C          -1.1786   -3.0465    2.8391 C.ar    1  LIG11       0.0665
     24 C          -2.1712   -2.8559    1.8712 C.ar    1  LIG11      -0.0039
     25 C          -3.3281   -3.6379    1.9292 C.ar    1  LIG11      -0.0532
     26 C          -3.4642   -4.6406    2.8878 C.ar    1  LIG11      -0.0611
     27 C          -0.0198   -2.0951    2.9667 C.2     1  LIG11       0.3374
     28 O          -0.1709   -0.7872    2.7254 O.3     1  LIG11      -0.4771
     29 O           1.0704   -2.4912    3.3004 O.2     1  LIG11      -0.2451
     30 H          -2.2647    0.6432   -3.3505 H       1  LIG11       0.0542
     31 H          -0.4964    0.5819   -3.1809 H       1  LIG11       0.0542
     32 H           0.9814    3.3311    1.0927 H       1  LIG11       0.0381
     33 H          -0.0577    1.8677    1.2792 H       1  LIG11       0.0381
     34 H           1.9921    0.4147    1.4461 H       1  LIG11       0.0273
     35 H           3.0512    1.8560    1.2280 H       1  LIG11       0.0273
     36 H          -4.2605    2.0956   -2.7178 H       1  LIG11       0.0622
     37 H          -4.3099    3.8920   -2.9304 H       1  LIG11       0.0622
     38 H          -3.0258    3.6261   -4.7530 H       1  LIG11       0.2099
     39 H           2.1527    2.8754    3.3287 H       1  LIG11       0.0263
     40 H           1.0241    1.4948    3.5467 H       1  LIG11       0.0263
     41 H           3.0750    1.2102    4.9796 H       1  LIG11       0.0230
     42 H           2.9893   -0.0959    3.7442 H       1  LIG11       0.0230
     43 H           4.1287    1.2843    3.5210 H       1  LIG11       0.0230
     44 H          -3.9155   -0.9597    0.9436 H       1  LIG11       0.0624
     45 H          -3.5999    0.5736   -0.9660 H       1  LIG11       0.0621
     46 H           0.2819   -1.1737   -1.7337 H       1  LIG11       0.0621
     47 H          -0.0274   -2.7018    0.1777 H       1  LIG11       0.0624
     48 H          -2.5332   -5.6824    4.5454 H       1  LIG11       0.0618
     49 H          -0.5061   -4.2471    4.5262 H       1  LIG11       0.0626
     50 H          -4.1254   -3.5104    1.1773 H       1  LIG11       0.0624
     51 H          -4.3754   -5.2628    2.9118 H       1  LIG11       0.0618
     52 H          -1.1167   -0.6244    2.6044 H       1  LIG11       0.2954
@<TRIPOS>BOND
     1    38    12    1
     2    12    11    1
     3    30     6    1
     4    31     6    1
     5    11    37    1
     6    11    36    1
     7    11     5    1
     8     6     1    1
     9     6    18    1
    10     5     1   ar
    11     5     4   ar
    12     1     2   ar
    13    46    19    1
    14     4    10    1
    15     4     3   ar
    16    18    19   ar
    17    18    17   ar
    18     2     3   ar
    19     2     7    1
    20    19    20   ar
    21    45    17    1
    22     7     8    1
    23    17    16   ar
    24    20    47    1
    25    20    15   ar
    26    16    15   ar
    27    16    44    1
    28    15    24    1
    29     8    32    1
    30     8    33    1
    31     8     9    1
    32    50    25    1
    33    35     9    1
    34    34     9    1
    35     9    13    1
    36    24    25   ar
    37    24    23   ar
    38    25    26   ar
    39    52    28    1
    40    28    27    1
    41    23    27    1
    42    23    22   ar
    43    26    51    1
    44    26    21   ar
    45    27    29    2
    46    13    39    1
    47    13    40    1
    48    13    14    1
    49    43    14    1
    50    42    14    1
    51    22    21   ar
    52    22    49    1
    53    21    48    1
    54    14    41    1
