@<TRIPOS>MOLECULE
CPD_68-b
 59 60 0 0 0
SMALL
GASTEIGER

@<TRIPOS>ATOM
      1 C1          3.6161   -8.4393   13.6670 C.3     1  TOS111     -0.1868
      2 ****        4.4818   -6.2073   14.6010 H       1  TOS111      0.1418
      3 C3          9.1349   -6.6193   14.4796 C.3     1  TOS111     -0.1647
      4 C4          8.7669   -9.3029   13.4918 C.3     1  TOS111     -0.2063
      5 ****        6.8636   -5.0498   15.0518 O.3     1  TOS111     -0.2291
      6 ****        5.7962   -4.1548   15.4041 C.3     1  TOS111     -0.0587
      7 ****        6.2496   -3.2226   15.7758 H       1  TOS111      0.1149
      8 ****        6.7441   -9.2096   10.3987 H       2  APM222      0.1211
      9 ****        5.2706  -10.4456    8.6339 H       2  APM222      0.1179
     10 ****        6.1753   -9.0313    8.0770 H       2  APM222      0.1108
     11 ****        2.8064  -10.3595    8.5208 H       2  APM222      0.1333
     12 ****        5.1038   -6.8284    7.7428 H       2  APM222      0.1610
     13 ****        3.0760   -5.6745    6.9482 H       2  APM222      0.1642
     14 ****        0.8839   -6.7557    7.1232 H       2  APM222      0.1351
     15 ****        4.0095  -10.0798   10.9475 H       2  APM222      0.2288
     16 ****       -1.5885   -9.3851    7.0408 H       2  APM222      0.2733
     17 ****       -0.5461   -8.0927    6.4463 H       2  APM222      0.2943
     18 ****        0.8652  -10.8351    9.1046 H       2  APM222      0.2955
     19 ****       -0.7778  -10.9590    8.4739 H       2  APM222      0.2732
     20 N20         6.3354   -6.6176   10.1483 N.am    2  APM222     -0.3861
     21 ****        7.1945   -6.8870    9.7006 H       2  APM222      0.2375
     22 C22         6.1068   -5.2010   10.3848 C.3     2  APM222     -0.0773
     23 ****        5.1493   -5.0177   10.8952 H       2  APM222      0.1141
     24 ****        6.0955   -4.6589    9.4265 H       2  APM222      0.0655
     25 ****        6.9129   -4.7963   11.0132 H       2  APM222      0.0883
     26 S           5.7670  -10.4418   12.5690 S.O2    1  TOS111      2.6432
     27 O1          6.9038  -11.1734   12.0588 O.2     1  TOS111     -0.8827
     28 O2          4.8204  -11.1660   13.3866 O.2     1  TOS111     -0.8722
     29 C1          6.1887   -8.8945   13.4007 C.ar    1  TOS111     -0.7350
     30 C2          5.1098   -8.0761   13.7835 C.ar    1  TOS111      0.0706
     31 C3          5.3394   -6.8120   14.3322 C.ar    1  TOS111     -0.2348
     32 C4          6.6309   -6.3346   14.5396 C.ar    1  TOS111      0.1609
     33 C5          7.7136   -7.1629   14.2250 C.ar    1  TOS111     -0.1284
     34 C6          7.4979   -8.4502   13.6975 C.ar    1  TOS111      0.0643
     35 ****        5.1726   -4.5783   16.2085 H       1  TOS111      0.0758
     36 C           5.4035   -7.5371   10.4903 C.2     2  APM222      0.2826
     37 CA          5.6804   -8.9992   10.2118 C.3     2  APM222      0.0331
     38 CB          5.3520   -9.3545    8.7307 C.3     2  APM222     -0.1250
     39 CG          4.0737   -8.6638    8.2334 C.ar    2  APM222     -0.0559
     40 CD1         2.8345   -9.3193    8.2145 C.ar    2  APM222     -0.0706
     41 CD2         4.1535   -7.3469    7.7703 C.ar    2  APM222     -0.0555
     42 CE1         1.6656   -8.6700    7.7987 C.ar    2  APM222     -0.1438
     43 CE2         3.0022   -6.6889    7.3309 C.ar    2  APM222     -0.1070
     44 CZ          1.7640   -7.3284    7.3914 C.ar    2  APM222     -0.0851
     45 CF          0.3199   -9.3793    7.7787 C.3     2  APM222      0.3386
     46 O           4.3418   -7.2586   11.0278 O.2     2  APM222     -0.3644
     47 N           4.9548   -9.8322   11.1592 N.3     2  APM222     -0.8357
     48 NG1        -0.6682   -8.9196    7.0462 N.3     2  APM222     -0.3297
     49 NG2         0.1257  -10.4619    8.4958 N.3     2  APM222     -0.3274
     50 ****        5.1718   -3.9089   14.5293 H       1  TOS111      0.0672
     51 ****        3.3794   -9.3425   13.1024 H       1  TOS111      0.0814
     52 ****        3.0633   -7.6168   13.1846 H       1  TOS111      0.0989
     53 ****        3.2092   -8.5651   14.6838 H       1  TOS111      0.1006
     54 ****        9.1352   -5.6006   14.8889 H       1  TOS111      0.1004
     55 ****        9.6989   -6.5872   13.5379 H       1  TOS111      0.0772
     56 ****        9.6655   -7.2474   15.2101 H       1  TOS111      0.0878
     57 ****        8.6255  -10.3355   13.1776 H       1  TOS111      0.1158
     58 ****        9.3106   -9.3815   14.4470 H       1  TOS111      0.1012
     59 ****        9.4124   -8.8151   12.7436 H       1  TOS111      0.0917
@<TRIPOS>BOND
     1    30     1    1
     2    31     2    1
     3    33     3    1
     4    34     4    1
     5    32     5    1
     6     5     6    1
     7     6     7    1
     8    37     8    1
     9    38     9    1
    10    38    10    1
    11    40    11    1
    12    41    12    1
    13    43    13    1
    14    44    14    1
    15    47    15    1
    16    48    16    1
    17    48    17    1
    18    49    18    1
    19    49    19    1
    20    36    20   am
    21    20    21    1
    22    20    22    1
    23    22    23    1
    24    22    24    1
    25    22    25    1
    26    26    29    1
    27    26    28    2
    28    26    27    2
    29    29    34   ar
    30    29    30   ar
    31    30    31   ar
    32    31    32   ar
    33     6    35    1
    34    32    33   ar
    35    33    34   ar
    36    36    46    2
    37    36    37    1
    38    37    47    1
    39    37    38    1
    40    38    39    1
    41    39    41   ar
    42    39    40   ar
    43    40    42   ar
    44    42    45    1
    45    42    44   ar
    46    44    43   ar
    47    43    41   ar
    48    45    49    1
    49    45    48    1
    50    47    26    1
    51     6    50    1
    52     1    51    1
    53     1    52    1
    54     1    53    1
    55     3    54    1
    56     3    55    1
    57     3    56    1
    58     4    57    1
    59     4    58    1
    60     4    59    1
