@<TRIPOS>MOLECULE
CPD_51-b
 75 79 0 0 0
SMALL
GASTEIGER

@<TRIPOS>ATOM
      1 C1          3.8922   -6.3556   15.3043 C.ar    4  NAPHTHALENE44   -0.1024
      2 C2          4.0618   -5.1415   15.9733 C.ar    4  NAPHTHALENE44   -0.1341
      3 C3          5.3300   -4.5623   16.0547 C.ar    4  NAPHTHALENE44   -0.1031
      4 C4          6.4271   -5.2009   15.4666 C.ar    4  NAPHTHALENE44   -0.1338
      5 ****        6.6384   -9.4786   10.2489 H       2  APM222      0.1268
      6 ****        5.0645  -10.5695    8.6212 H       2  APM222      0.1160
      7 ****        6.0423   -9.2595    7.9804 H       2  APM222      0.1129
      8 ****        2.6997  -10.3952    8.4584 H       2  APM222      0.1343
      9 ****        5.0798   -6.9022    7.7273 H       2  APM222      0.1628
     10 ****        3.0584   -5.6632    7.0307 H       2  APM222      0.1649
     11 ****        0.8378   -6.7234    7.1854 H       2  APM222      0.1361
     12 ****        3.8600   -9.9434   11.0335 H       2  APM222      0.2286
     13 ****       -1.6343   -9.3601    7.0521 H       2  APM222      0.2721
     14 ****       -0.5851   -8.0441    6.5065 H       2  APM222      0.2966
     15 ****        0.8621  -10.8562    9.0674 H       2  APM222      0.2981
     16 ****       -0.7893  -10.9925    8.4546 H       2  APM222      0.2729
     17 C           8.6438   -7.4915   10.2763 C.2     5  CO255       0.2704
     18 N1          6.3751   -6.6539   10.0859 N.am    3  PYRROLIDINE33   -0.3331
     19 C1          6.0840   -5.2618   10.4114 C.3     3  PYRROLIDINE33    0.0008
     20 C2          7.4174   -4.5761   10.0375 C.3     3  PYRROLIDINE33   -0.1868
     21 C3          7.9205   -5.4636    8.8761 C.3     3  PYRROLIDINE33   -0.1619
     22 C4          7.6060   -6.9151    9.3442 C.3     3  PYRROLIDINE33    0.0333
     23 O           8.5794   -7.2662   11.4726 O.2     5  CO255      -0.3407
     24 H2          5.8277   -5.0998   11.4701 H       3  PYRROLIDINE33    0.1287
     25 H3          5.2677   -4.8964    9.7660 H       3  PYRROLIDINE33    0.0762
     26 H4          8.1263   -4.6410   10.8794 H       3  PYRROLIDINE33    0.1138
     27 S           5.6454  -10.4053   12.6080 S.O2    1  TOS111      2.6277
     28 O1          6.9275  -10.9757   12.2396 O.2     1  TOS111     -0.8754
     29 O2          4.7103  -11.2044   13.3748 O.2     1  TOS111     -0.8681
     30 C5          7.3565   -7.0784   14.2233 C.ar    4  NAPHTHALENE44   -0.1144
     31 C6          7.1860   -8.3212   13.6066 C.ar    4  NAPHTHALENE44   -0.0389
     32 C7          5.9115   -8.8780   13.4814 C.ar    4  NAPHTHALENE44   -0.7298
     33 C8          4.8178   -8.2129   14.0419 C.ar    4  NAPHTHALENE44    0.0212
     34 C9          4.9884   -6.9988   14.7142 C.ar    4  NAPHTHALENE44   -0.0558
     35 C10         6.2623   -6.4206   14.8013 C.ar    4  NAPHTHALENE44    0.0087
     36 H1          2.9012   -6.7950   15.2478 H       4  NAPHTHALENE44    0.1331
     37 C           5.4943   -7.6237   10.4620 C.2     2  APM222      0.2765
     38 CA          5.6138   -9.1053   10.1427 C.3     2  APM222      0.0392
     39 CB          5.2293   -9.4823    8.6849 C.3     2  APM222     -0.1256
     40 CG          3.9987   -8.7131    8.2051 C.ar    2  APM222     -0.0567
     41 CD1         2.7534   -9.3477    8.1860 C.ar    2  APM222     -0.0824
     42 CD2         4.1110   -7.3893    7.7687 C.ar    2  APM222     -0.0564
     43 CE1         1.6028   -8.6542    7.8043 C.ar    2  APM222     -0.1453
     44 CE2         2.9697   -6.6886    7.3774 C.ar    2  APM222     -0.1038
     45 CZ          1.7164   -7.3084    7.4325 C.ar    2  APM222     -0.0833
     46 CF          0.2662   -9.3784    7.7892 C.3     2  APM222      0.3331
     47 O           4.5064   -7.3120   11.1091 O.2     2  APM222     -0.3556
     48 N           4.8498   -9.8389   11.1485 N.3     2  APM222     -0.8296
     49 NG1        -0.7155   -8.8933    7.0742 N.3     2  APM222     -0.3253
     50 NG2         0.1053  -10.4808    8.4785 N.3     2  APM222     -0.3252
     51 H5          7.2918   -3.5140    9.7643 H       3  PYRROLIDINE33    0.1101
     52 H6          8.9784   -5.2822    8.6293 H       3  PYRROLIDINE33    0.1186
     53 H7          7.3096   -5.2180    7.9886 H       3  PYRROLIDINE33    0.0894
     54 H8          7.4693   -7.5617    8.4706 H       3  PYRROLIDINE33    0.1176
     55 C1         10.5098   -8.7431   10.7855 C.3     6  BENZYL66    0.0167
     56 O           9.6165   -8.2573    9.7591 O.3     5  CO255      -0.2313
     57 C2         11.5594   -9.6483   10.1460 C.ar    6  BENZYL66   -0.1025
     58 C3         12.7545   -9.1011    9.6688 C.ar    6  BENZYL66   -0.1057
     59 C4         13.7425   -9.9361    9.1413 C.ar    6  BENZYL66   -0.1306
     60 H2          3.2086   -4.6480   16.4299 H       4  NAPHTHALENE44    0.1380
     61 H3          5.4628   -3.6185   16.5745 H       4  NAPHTHALENE44    0.1394
     62 H4          7.4064   -4.7370   15.5368 H       4  NAPHTHALENE44    0.1401
     63 H5          8.3455   -6.6303   14.2535 H       4  NAPHTHALENE44    0.1474
     64 H6          8.0470   -8.8596   13.2282 H       4  NAPHTHALENE44    0.1518
     65 H8          3.8337   -8.6587   13.9494 H       4  NAPHTHALENE44    0.1357
     66 C5         13.5271  -11.3153    9.0660 C.ar    6  BENZYL66   -0.1119
     67 C6         12.3195  -11.8586    9.5137 C.ar    6  BENZYL66   -0.1315
     68 C7         11.3309  -11.0245   10.0419 C.ar    6  BENZYL66   -0.1051
     69 ****       11.0108   -7.9029   11.2974 H       6  BENZYL66    0.1033
     70 ****        9.9606   -9.3255   11.5451 H       6  BENZYL66    0.1087
     71 ****       12.9166   -8.0281    9.7073 H       6  BENZYL66    0.1330
     72 ****       14.6775   -9.5121    8.7905 H       6  BENZYL66    0.1376
     73 ****       14.2965  -11.9639    8.6592 H       6  BENZYL66    0.1374
     74 ****       12.1487  -12.9285    9.4517 H       6  BENZYL66    0.1372
     75 ****       10.3867  -11.4492   10.3703 H       6  BENZYL66    0.1392
@<TRIPOS>BOND
     1    27    32    1
     2    30    31   ar
     3    30    35   ar
     4    30    63    1
     5    35     4   ar
     6    35    34   ar
     7    34     1   ar
     8    38     5    1
     9    39     6    1
    10    39     7    1
    11    41     8    1
    12    42     9    1
    13    44    10    1
    14    45    11    1
    15    48    12    1
    16    49    13    1
    17    49    14    1
    18    50    15    1
    19    50    16    1
    20    37    18   am
    21    18    19    1
    22    18    22    1
    23    17    23    2
    24    22    21    1
    25    22    54    1
    26    22    17    1
    27    21    20    1
    28    21    52    1
    29    21    53    1
    30    34    33   ar
    31    27    29    2
    32    27    28    2
    33    33    32   ar
    34    33    65    1
    35    32    31   ar
    36    31    64    1
    37     1     2   ar
    38     1    36    1
    39    37    47    2
    40    37    38    1
    41    38    48    1
    42    38    39    1
    43    39    40    1
    44    40    42   ar
    45    40    41   ar
    46    41    43   ar
    47    43    46    1
    48    43    45   ar
    49    45    44   ar
    50    44    42   ar
    51    46    50    1
    52    46    49    1
    53    20    19    1
    54    20    26    1
    55    20    51    1
    56    19    24    1
    57    19    25    1
    58    17    56    1
    59    55    57    1
    60    48    27    1
    61    57    58   ar
    62    57    68   ar
    63    68    67   ar
    64     2     3   ar
    65     2    60    1
    66     3     4   ar
    67     3    61    1
    68     4    62    1
    69    67    66   ar
    70    66    59   ar
    71    59    58   ar
    72    56    55    1
    73    55    69    1
    74    55    70    1
    75    58    71    1
    76    59    72    1
    77    66    73    1
    78    67    74    1
    79    68    75    1
