@<TRIPOS>MOLECULE
CPD_27-b
 71 74 0 0 0
SMALL
GASTEIGER

@<TRIPOS>ATOM
      1 C1          3.9035   -6.3638   15.2920 C.ar    4  NAPHTHALENE44   -0.1001
      2 C2          4.0721   -5.1491   15.9622 C.ar    4  NAPHTHALENE44   -0.1301
      3 C3          5.3405   -4.5695   16.0436 C.ar    4  NAPHTHALENE44   -0.0976
      4 C4          6.4374   -5.2053   15.4558 C.ar    4  NAPHTHALENE44   -0.1362
      5 ****        6.7535   -9.2879   10.3891 H       2  APM222      0.1244
      6 ****        5.2557  -10.5038    8.6599 H       2  APM222      0.1167
      7 ****        6.1538   -9.1146    8.0317 H       2  APM222      0.1094
      8 ****        2.7740  -10.4287    8.5216 H       2  APM222      0.1327
      9 ****        5.0682   -6.9182    7.6931 H       2  APM222      0.1701
     10 ****        3.0235   -5.6922    7.0704 H       2  APM222      0.1707
     11 ****        0.8257   -6.7936    7.2572 H       2  APM222      0.1342
     12 ****        3.9543   -9.9100   10.9671 H       2  APM222      0.2283
     13 ****       -1.6029   -9.3766    7.0766 H       2  APM222      0.2716
     14 ****       -0.5409   -8.0684    6.5389 H       2  APM222      0.2965
     15 ****        0.8820  -10.9067    9.0812 H       2  APM222      0.2971
     16 ****       -0.7785  -11.0190    8.4800 H       2  APM222      0.2720
     17 C           7.5848   -6.0584    8.0406 C.2     5  CO255       0.2858
     18 ****        7.7954   -7.7596    9.2153 H       3  PIP333      0.1251
     19 ****        9.6525   -6.2477    9.7835 H       3  PIP333      0.1090
     20 ****        8.7264   -6.7411   11.2281 H       3  PIP333      0.1013
     21 ****        8.3853   -4.0663    9.7287 H       3  PIP333      0.0972
     22 C23         9.5649   -4.1077   11.5483 C.3     3  PIP333     -0.2068
     23 ****        6.8406   -3.4714   11.6072 H       3  PIP333      0.1001
     24 ****        7.1010   -5.0738   12.3439 H       3  PIP333      0.0936
     25 ****        4.9868   -5.0788   11.1463 H       3  PIP333      0.1251
     26 ****        5.7294   -4.4940    9.6680 H       3  PIP333      0.1040
     27 S           5.6737  -10.4101   12.6091 S.O2    1  TOS111      2.6229
     28 O1          6.9587  -11.0048   12.2937 O.2     1  TOS111     -0.8655
     29 O2          4.6849  -11.1841   13.3333 O.2     1  TOS111     -0.8649
     30 C5          7.3674   -7.0701   14.1979 C.ar    4  NAPHTHALENE44   -0.1313
     31 C6          7.1947   -8.2826   13.5240 C.ar    4  NAPHTHALENE44   -0.0625
     32 C7          5.9283   -8.8691   13.4547 C.ar    4  NAPHTHALENE44   -0.7316
     33 C8          4.8341   -8.2212   14.0319 C.ar    4  NAPHTHALENE44    0.0308
     34 C9          5.0000   -7.0039   14.7031 C.ar    4  NAPHTHALENE44   -0.0547
     35 C10         6.2734   -6.4246   14.7861 C.ar    4  NAPHTHALENE44    0.0095
     36 H1          2.9123   -6.8034   15.2354 H       4  NAPHTHALENE44    0.1369
     37 C           5.4613   -7.5372   10.4752 C.2     2  APM222      0.2760
     38 CA          5.7124   -9.0052   10.1777 C.3     2  APM222      0.0423
     39 CB          5.3457   -9.4076    8.7196 C.3     2  APM222     -0.1207
     40 CG          4.0507   -8.7286    8.2381 C.ar    2  APM222     -0.0607
     41 CD1         2.8136   -9.3847    8.2331 C.ar    2  APM222     -0.0745
     42 CD2         4.1138   -7.4121    7.7744 C.ar    2  APM222     -0.0550
     43 CE1         1.6436   -8.7133    7.8472 C.ar    2  APM222     -0.1509
     44 CE2         2.9581   -6.7219    7.4088 C.ar    2  APM222     -0.0996
     45 CZ          1.7210   -7.3634    7.4824 C.ar    2  APM222     -0.0885
     46 CF          0.3002   -9.4204    7.8148 C.3     2  APM222      0.3337
     47 O           4.4211   -7.3376   11.0834 O.2     2  APM222     -0.3623
     48 N           4.9362   -9.7980   11.1224 N.3     2  APM222     -0.8279
     49 NG1        -0.6786   -8.9205    7.1012 N.3     2  APM222     -0.3285
     50 NG2         0.1249  -10.5223    8.4990 N.3     2  APM222     -0.3252
     51 N1          6.2809   -6.4966   10.1268 N.am    3  PIP333     -0.3174
     52 C2          7.5476   -6.7087    9.4065 C.3     3  PIP333      0.0305
     53 C3          8.6831   -6.1482   10.2996 C.3     3  PIP333     -0.1629
     54 C4          8.4185   -4.6609   10.6582 C.3     3  PIP333     -0.1104
     55 C5          7.0543   -4.5312   11.3882 C.3     3  PIP333     -0.1772
     56 C6          5.9062   -5.1348   10.5422 C.3     3  PIP333     -0.0198
     57 ****       10.5319   -4.2006   11.0300 H       3  PIP333      0.0812
     58 ****        9.6212   -4.6651   12.4961 H       3  PIP333      0.0741
     59 ****        9.3942   -3.0442   11.7764 H       3  PIP333      0.0843
     60 H2          3.2189   -4.6569   16.4189 H       4  NAPHTHALENE44    0.1414
     61 H3          5.4724   -3.6256   16.5640 H       4  NAPHTHALENE44    0.1422
     62 H4          7.4168   -4.7420   15.5253 H       4  NAPHTHALENE44    0.1406
     63 H5          8.3605   -6.6347   14.2578 H       4  NAPHTHALENE44    0.1415
     64 H6          8.0461   -8.7660   13.0574 H       4  NAPHTHALENE44    0.1475
     65 H8          3.8524   -8.6759   13.9525 H       4  NAPHTHALENE44    0.1429
     66 O           6.7699   -5.2174    7.6978 O.2     5  CO255      -0.3572
     67 O           8.5827   -6.4881    7.2502 O.3     5  CO255      -0.2438
     68 ****        8.6194   -5.9411    5.9130 C.3     5  CO255      -0.0803
     69 ****        9.5962   -5.4524    5.7866 H       5  CO255       0.1006
     70 ****        7.8355   -5.2209    5.6299 H       5  CO255       0.1114
     71 ****        8.5674   -6.7891    5.2145 H       5  CO255       0.0891
@<TRIPOS>BOND
     1    27    32    1
     2    30    31   ar
     3    30    35   ar
     4    30    63    1
     5    35     4   ar
     6    35    34   ar
     7    34     1   ar
     8    38     5    1
     9    39     6    1
    10    39     7    1
    11    41     8    1
    12    42     9    1
    13    44    10    1
    14    45    11    1
    15    48    12    1
    16    49    13    1
    17    49    14    1
    18    50    15    1
    19    50    16    1
    20    17    66    2
    21    52    18    1
    22    53    19    1
    23    53    20    1
    24    54    21    1
    25    54    22    1
    26    55    23    1
    27    55    24    1
    28    56    25    1
    29    56    26    1
    30    34    33   ar
    31    27    29    2
    32    27    28    2
    33    33    32   ar
    34    33    65    1
    35    32    31   ar
    36    31    64    1
    37     1     2   ar
    38     1    36    1
    39    37    47    2
    40    37    38    1
    41    38    48    1
    42    38    39    1
    43    39    40    1
    44    40    42   ar
    45    40    41   ar
    46    41    43   ar
    47    43    46    1
    48    43    45   ar
    49    45    44   ar
    50    44    42   ar
    51    46    50    1
    52    46    49    1
    53    56    51    1
    54    51    52    1
    55    52    53    1
    56    53    54    1
    57    54    55    1
    58    55    56    1
    59    37    51   am
    60    48    27    1
    61    22    57    1
    62    22    58    1
    63    22    59    1
    64     2     3   ar
    65     2    60    1
    66     3     4   ar
    67     3    61    1
    68     4    62    1
    69    17    67    1
    70    52    17    1
    71    67    68    1
    72    68    69    1
    73    68    70    1
    74    68    71    1
