@<TRIPOS>MOLECULE
Steroids.17
 55 58 0 0 0
SMALL
GASTEIGER

@<TRIPOS>ATOM
      1 C          -3.0308   -0.7076   -0.9945 C.3     1  LIG1       -0.0413
      2 C          -4.2195   -1.3119   -0.2244 C.3     1  LIG1       -0.0257
      3 C          -3.8126   -2.6878    0.3319 C.3     1  LIG1        0.0589
      4 O          -4.9551   -3.2874    1.0368 O.3     1  LIG1       -0.3914
      5 C          -2.6385   -2.5149    1.3135 C.3     1  LIG1       -0.0050
      6 C          -1.4758   -1.8243    0.6521 C.2     1  LIG1       -0.0648
      7 C          -0.2470   -2.3356    0.7749 C.2     1  LIG1       -0.0838
      8 C           0.9732   -1.7224    0.1479 C.3     1  LIG1       -0.0311
      9 C           0.7406   -0.2543   -0.2562 C.3     1  LIG1       -0.0306
     10 C          -0.5971   -0.1584   -1.0263 C.3     1  LIG1       -0.0285
     11 C          -1.7780   -0.5481   -0.1015 C.3     1  LIG1       -0.0078
     12 C          -0.8112    1.2350   -1.6727 C.3     1  LIG1       -0.0486
     13 C           0.3877    1.6540   -2.5515 C.3     1  LIG1       -0.0464
     14 C           1.6695    1.6205   -1.6987 C.3     1  LIG1       -0.0194
     15 C           1.8620    0.1764   -1.2187 C.3     1  LIG1       -0.0315
     16 C           3.2925    0.1779   -0.6622 C.3     1  LIG1       -0.0487
     17 C           4.0501    1.0898   -1.6539 C.3     1  LIG1       -0.0427
     18 C           2.9749    1.8275   -2.4926 C.3     1  LIG1        0.0228
     19 C           1.5883    2.6272   -0.5256 C.3     1  LIG1       -0.0586
     20 C          -2.0355    0.5447    0.9606 C.3     1  LIG1       -0.0555
     21 C           3.2925    3.2746   -2.7612 C.2     1  LIG1        0.1338
     22 O           4.2343    3.8412   -2.2307 O.2     1  LIG1       -0.2973
     23 C           2.3891    4.0115   -3.7064 C.3     1  LIG1       -0.0057
     24 H          -3.3322    0.2756   -1.3853 H       1  LIG1        0.0274
     25 H          -2.7875   -1.3725   -1.8364 H       1  LIG1        0.0274
     26 H          -5.0684   -1.4357   -0.9125 H       1  LIG1        0.0290
     27 H          -4.5126   -0.6480    0.6016 H       1  LIG1        0.0290
     28 H          -3.5054   -3.3430   -0.4970 H       1  LIG1        0.0596
     29 H          -5.2885   -2.7784    1.7665 H       1  LIG1        0.2097
     30 H          -2.3344   -3.5087    1.6739 H       1  LIG1        0.0335
     31 H          -2.9765   -1.9128    2.1693 H       1  LIG1        0.0335
     32 H          -0.1167   -3.2546    1.3443 H       1  LIG1        0.0571
     33 H           1.2173   -2.2993   -0.7563 H       1  LIG1        0.0310
     34 H           1.8217   -1.7743    0.8453 H       1  LIG1        0.0310
     35 H           0.7278    0.3815    0.6401 H       1  LIG1        0.0309
     36 H          -0.5499   -0.8933   -1.8441 H       1  LIG1        0.0311
     37 H          -0.9494    1.9945   -0.8919 H       1  LIG1        0.0268
     38 H          -1.7086    1.2076   -2.3076 H       1  LIG1        0.0268
     39 H           0.2208    2.6683   -2.9414 H       1  LIG1        0.0270
     40 H           0.4875    0.9496   -3.3905 H       1  LIG1        0.0270
     41 H           1.8426   -0.4854   -2.0981 H       1  LIG1        0.0309
     42 H           3.7162   -0.8368   -0.6274 H       1  LIG1        0.0268
     43 H           3.3009    0.6293    0.3404 H       1  LIG1        0.0268
     44 H           4.6784    0.4864   -2.3249 H       1  LIG1        0.0272
     45 H           4.6769    1.7927   -1.0867 H       1  LIG1        0.0272
     46 H           2.8737    1.2944   -3.4493 H       1  LIG1        0.0382
     47 H           1.4201    3.6364   -0.9289 H       1  LIG1        0.0235
     48 H           2.5314    2.6184    0.0395 H       1  LIG1        0.0235
     49 H           0.7620    2.3693    0.1506 H       1  LIG1        0.0235
     50 H          -1.1181    0.7226    1.5415 H       1  LIG1        0.0238
     51 H          -2.8329    0.2171    1.6426 H       1  LIG1        0.0238
     52 H          -2.3469    1.4801    0.4742 H       1  LIG1        0.0238
     53 H           2.9870    4.6703   -4.3521 H       1  LIG1        0.0305
     54 H           1.6758    4.6179   -3.1297 H       1  LIG1        0.0305
     55 H           1.8347    3.2979   -4.3332 H       1  LIG1        0.0305
@<TRIPOS>BOND
     1     1     2    1
     2     2     3    1
     3     3     4    1
     4     3     5    1
     5     5     6    1
     6     6     7    2
     7     7     8    1
     8     8     9    1
     9     9    10    1
    10     1    11    1
    11    10    12    1
    12    12    13    1
    13    13    14    1
    14     9    15    1
    15    15    16    1
    16    16    17    1
    17    14    18    1
    18    14    19    1
    19    11    20    1
    20    18    21    1
    21    21    22    2
    22    21    23    1
    23     6    11    1
    24    10    11    1
    25    14    15    1
    26    17    18    1
    27     1    24    1
    28     1    25    1
    29     2    26    1
    30     2    27    1
    31     3    28    1
    32     4    29    1
    33     5    30    1
    34     5    31    1
    35     7    32    1
    36     8    33    1
    37     8    34    1
    38     9    35    1
    39    10    36    1
    40    12    37    1
    41    12    38    1
    42    13    39    1
    43    13    40    1
    44    15    41    1
    45    16    42    1
    46    16    43    1
    47    17    44    1
    48    17    45    1
    49    18    46    1
    50    19    47    1
    51    19    48    1
    52    19    49    1
    53    20    50    1
    54    20    51    1
    55    20    52    1
    56    23    53    1
    57    23    54    1
    58    23    55    1
