@<TRIPOS>MOLECULE
Steroids.20
 54 57 0 0 0
SMALL
GASTEIGER

@<TRIPOS>ATOM
      1 C          -3.0074   -0.7349   -1.0541 C.3     1  LIG1       -0.0366
      2 C          -1.7957   -0.5590   -0.1077 C.3     1  LIG1       -0.0072
      3 C          -0.8098    1.2846   -1.5975 C.3     1  LIG1       -0.0485
      4 C           0.3707    1.7028   -2.5020 C.3     1  LIG1       -0.0440
      5 C           1.6785    1.6317   -1.6899 C.3     1  LIG1        0.0067
      6 C           1.8565    0.1883   -1.1957 C.3     1  LIG1       -0.0293
      7 C           3.2998    0.1745   -0.6672 C.3     1  LIG1       -0.0463
      8 C           4.0513    1.1284   -1.6272 C.3     1  LIG1       -0.0162
      9 C           2.9737    1.8138   -2.5083 C.3     1  LIG1        0.1288
     10 C           1.6468    2.6483   -0.5206 C.3     1  LIG1       -0.0562
     11 C          -2.1167    0.5090    0.9607 C.3     1  LIG1       -0.0555
     12 C          -4.1906   -1.3850   -0.3159 C.3     1  LIG1        0.0106
     13 C           3.2650    3.2581   -2.8191 C.2     1  LIG1        0.1620
     14 C           2.3536    3.9503   -3.7932 C.3     1  LIG1       -0.0031
     15 C          -3.7371   -2.6502    0.3534 C.2     1  LIG1        0.1560
     16 C          -2.4807   -2.7924    0.7886 C.2     1  LIG1       -0.0194
     17 C          -1.5358   -1.8601    0.6206 C.2     1  LIG1       -0.0600
     18 C          -0.1600   -2.0803    1.1912 C.3     1  LIG1       -0.0305
     19 C           0.9469   -1.6840    0.2003 C.3     1  LIG1       -0.0459
     20 C           0.7419   -0.2178   -0.2164 C.3     1  LIG1       -0.0337
     21 C          -0.5959   -0.1248   -0.9879 C.3     1  LIG1       -0.0287
     22 O           2.8795    1.0864   -3.7863 O.3     1  LIG1       -0.3805
     23 O           4.1960    3.8554   -2.3028 O.2     1  LIG1       -0.2946
     24 O          -4.5367   -3.5580    0.5141 O.2     1  LIG1       -0.2926
     25 H          -3.3251    0.2405   -1.4501 H       1  LIG1        0.0277
     26 H          -2.7177   -1.3903   -1.8890 H       1  LIG1        0.0277
     27 H          -0.9197    2.0235   -0.7911 H       1  LIG1        0.0268
     28 H          -1.7224    1.2860   -2.2089 H       1  LIG1        0.0268
     29 H           0.2088    2.7292   -2.8603 H       1  LIG1        0.0271
     30 H           0.4270    1.0191   -3.3613 H       1  LIG1        0.0271
     31 H           1.8045   -0.4950   -2.0544 H       1  LIG1        0.0309
     32 H           3.7211   -0.8410   -0.6798 H       1  LIG1        0.0269
     33 H           3.3232    0.5821    0.3537 H       1  LIG1        0.0269
     34 H           4.7541    0.5685   -2.2621 H       1  LIG1        0.0297
     35 H           4.6035    1.8670   -1.0286 H       1  LIG1        0.0297
     36 H           2.5929    2.6073    0.0386 H       1  LIG1        0.0236
     37 H           0.8191    2.4314    0.1686 H       1  LIG1        0.0236
     38 H           1.5140    3.6605   -0.9281 H       1  LIG1        0.0236
     39 H          -1.2143    0.7276    1.5503 H       1  LIG1        0.0238
     40 H          -2.9041    0.1322    1.6295 H       1  LIG1        0.0238
     41 H          -2.4687    1.4299    0.4750 H       1  LIG1        0.0238
     42 H          -4.9906   -1.6009   -1.0397 H       1  LIG1        0.0345
     43 H          -4.5689   -0.6883    0.4465 H       1  LIG1        0.0345
     44 H           1.8057    3.2079   -4.3927 H       1  LIG1        0.0306
     45 H           2.9434    4.5902   -4.4655 H       1  LIG1        0.0306
     46 H           1.6306    4.5708   -3.2438 H       1  LIG1        0.0306
     47 H          -2.2120   -3.7143    1.3019 H       1  LIG1        0.0651
     48 H          -0.0286   -3.1421    1.4487 H       1  LIG1        0.0310
     49 H          -0.0523   -1.4744    2.1029 H       1  LIG1        0.0310
     50 H           0.8930   -2.3316   -0.6875 H       1  LIG1        0.0271
     51 H           1.9285   -1.8041    0.6819 H       1  LIG1        0.0271
     52 H           0.7419    0.4310    0.6710 H       1  LIG1        0.0306
     53 H          -0.5297   -0.8323   -1.8279 H       1  LIG1        0.0311
     54 H           2.7024    0.1563   -3.7289 H       1  LIG1        0.2107
@<TRIPOS>BOND
     1     1    12    1
     2     2    11    1
     3    21     3    1
     4     3     4    1
     5     4     5    1
     6     5     6    1
     7     6     7    1
     8     7     8    1
     9     8     9    1
    10     5    10    1
    11    12    15    1
    12     9    13    1
    13    13    14    1
    14    15    16    1
    15    16    17    2
    16    17    18    1
    17    18    19    1
    18    19    20    1
    19    20    21    1
    20    21     2    1
    21     9    22    1
    22    13    23    2
    23    15    24    2
    24     1     2    1
    25    17     2    1
    26    20     6    1
    27     5     9    1
    28     1    25    1
    29     1    26    1
    30     3    27    1
    31     3    28    1
    32     4    29    1
    33     4    30    1
    34     6    31    1
    35     7    32    1
    36     7    33    1
    37     8    34    1
    38     8    35    1
    39    10    36    1
    40    10    37    1
    41    10    38    1
    42    11    39    1
    43    11    40    1
    44    11    41    1
    45    12    42    1
    46    12    43    1
    47    14    44    1
    48    14    45    1
    49    14    46    1
    50    16    47    1
    51    18    48    1
    52    18    49    1
    53    19    50    1
    54    19    51    1
    55    20    52    1
    56    21    53    1
    57    22    54    1
