@<TRIPOS>MOLECULE
Steroids.13
 44 47 0 0 0
SMALL
GASTEIGER

@<TRIPOS>ATOM
      1 C          -2.9803   -0.8497   -1.0339 C.ar    1  LIG1       -0.0556
      2 C          -1.6755   -1.0809   -0.5858 C.ar    1  LIG1       -0.0406
      3 C          -0.8211    0.9438   -1.9156 C.3     1  LIG1       -0.0453
      4 C           0.4000    1.5619   -2.6393 C.3     1  LIG1       -0.0444
      5 C           1.5979    1.6163   -1.6721 C.3     1  LIG1       -0.0029
      6 C           1.9084    0.1832   -1.2191 C.3     1  LIG1       -0.0298
      7 C           3.2665    0.3205   -0.5135 C.3     1  LIG1       -0.0470
      8 C           3.9936    1.4047   -1.3433 C.3     1  LIG1       -0.0260
      9 C           2.9436    1.9896   -2.3180 C.3     1  LIG1        0.0608
     10 C           1.3061    2.5745   -0.4921 C.3     1  LIG1       -0.0569
     11 C          -4.0708   -1.4222   -0.3755 C.ar    1  LIG1       -0.0316
     12 C          -3.8633   -2.2432    0.7352 C.ar    1  LIG1        0.0728
     13 C          -2.5624   -2.4849    1.1806 C.ar    1  LIG1       -0.0284
     14 C          -1.4711   -1.9007    0.5321 C.ar    1  LIG1       -0.0414
     15 C          -0.0768   -2.1898    1.0943 C.3     1  LIG1       -0.0270
     16 C           1.0402   -1.7954    0.1105 C.3     1  LIG1       -0.0453
     17 C           0.7394   -0.3745   -0.3911 C.3     1  LIG1       -0.0305
     18 C          -0.4888   -0.4511   -1.3262 C.3     1  LIG1       -0.0124
     19 O           3.1049    3.4413   -2.4884 O.3     1  LIG1       -0.3912
     20 O          -4.8734   -2.7824    1.3551 O.3     1  LIG1       -0.3598
     21 H          -3.1584   -0.2263   -1.9012 H       1  LIG1        0.0621
     22 H          -1.6300    0.8474   -2.6535 H       1  LIG1        0.0271
     23 H          -1.1517    1.6102   -1.1061 H       1  LIG1        0.0271
     24 H           0.1547    2.5756   -2.9881 H       1  LIG1        0.0271
     25 H           0.6609    0.9312   -3.5018 H       1  LIG1        0.0271
     26 H           2.0483   -0.4473   -2.1103 H       1  LIG1        0.0309
     27 H           3.8154   -0.6323   -0.5099 H       1  LIG1        0.0269
     28 H           3.1166    0.6763    0.5161 H       1  LIG1        0.0269
     29 H           4.8330    0.9748   -1.9086 H       1  LIG1        0.0290
     30 H           4.3604    2.1891   -0.6654 H       1  LIG1        0.0290
     31 H           3.0303    1.4786   -3.2883 H       1  LIG1        0.0598
     32 H           1.1422    3.5871   -0.8886 H       1  LIG1        0.0235
     33 H           2.1611    2.5944    0.1989 H       1  LIG1        0.0235
     34 H           0.4088    2.2580    0.0568 H       1  LIG1        0.0235
     35 H          -5.0772   -1.2300   -0.7292 H       1  LIG1        0.0643
     36 H          -2.3984   -3.1283    2.0372 H       1  LIG1        0.0646
     37 H           0.0131   -3.2601    1.3320 H       1  LIG1        0.0313
     38 H           0.0468   -1.6032    2.0163 H       1  LIG1        0.0313
     39 H           1.0601   -2.4929   -0.7400 H       1  LIG1        0.0271
     40 H           2.0087   -1.8200    0.6310 H       1  LIG1        0.0271
     41 H           0.5358    0.2760    0.4710 H       1  LIG1        0.0309
     42 H          -0.2338   -1.1131   -2.1667 H       1  LIG1        0.0351
     43 H           3.9378    3.7124   -2.8562 H       1  LIG1        0.2098
     44 H          -5.7358   -2.5714    1.0160 H       1  LIG1        0.2173
@<TRIPOS>BOND
     1     2     1   ar
     2     2    14   ar
     3     3     4    1
     4     4     5    1
     5     5     6    1
     6     6     7    1
     7     7     8    1
     8     8     9    1
     9     9     5    1
    10     5    10    1
    11     1    11   ar
    12    11    12   ar
    13    13    12   ar
    14    14    13   ar
    15    14    15    1
    16    15    16    1
    17     6    17    1
    18    18     2    1
    19     9    19    1
    20    12    20    1
    21     3    18    1
    22    16    17    1
    23    17    18    1
    24     1    21    1
    25     3    22    1
    26     3    23    1
    27     4    24    1
    28     4    25    1
    29     6    26    1
    30     7    27    1
    31     7    28    1
    32     8    29    1
    33     8    30    1
    34     9    31    1
    35    10    32    1
    36    10    33    1
    37    10    34    1
    38    11    35    1
    39    13    36    1
    40    15    37    1
    41    15    38    1
    42    16    39    1
    43    16    40    1
    44    17    41    1
    45    18    42    1
    46    19    43    1
    47    20    44    1
