@<TRIPOS>MOLECULE
Steroids.12
 51 54 0 0 0
SMALL
GASTEIGER

@<TRIPOS>ATOM
      1 C          -3.0085   -0.8228   -1.0838 C.3     1  LIG1       -0.0404
      2 C          -1.7690   -0.6259   -0.1786 C.3     1  LIG1       -0.0253
      3 C          -0.8065    1.0410   -1.8942 C.3     1  LIG1       -0.0488
      4 C           0.4357    1.4359   -2.7266 C.3     1  LIG1       -0.0447
      5 C           1.6350    1.6193   -1.7780 C.3     1  LIG1       -0.0030
      6 C           1.9002    0.2784   -1.0825 C.3     1  LIG1       -0.0301
      7 C           3.2584    0.5053   -0.3989 C.3     1  LIG1       -0.0470
      8 C           4.0204    1.4046   -1.4014 C.3     1  LIG1       -0.0260
      9 C           2.9900    1.8275   -2.4757 C.3     1  LIG1        0.0608
     10 C           1.3776    2.7749   -0.7811 C.3     1  LIG1       -0.0569
     11 C          -2.0663    0.4733    0.8701 C.3     1  LIG1       -0.0590
     12 C          -4.2303   -1.3124   -0.2767 C.3     1  LIG1        0.0063
     13 C          -3.8622   -2.5525    0.4844 C.2     1  LIG1        0.1336
     14 C          -2.6415   -2.4773    1.3546 C.3     1  LIG1        0.0091
     15 C          -1.4540   -1.9823    0.5029 C.3     1  LIG1       -0.0286
     16 C          -0.1825   -1.8928    1.3704 C.3     1  LIG1       -0.0490
     17 C           1.0140   -1.4689    0.4961 C.3     1  LIG1       -0.0493
     18 C           0.7215   -0.1118   -0.1735 C.3     1  LIG1       -0.0342
     19 C          -0.5490   -0.2369   -1.0538 C.3     1  LIG1       -0.0322
     20 O           3.1919    3.2148   -2.9187 O.3     1  LIG1       -0.3912
     21 O          -4.5240   -3.5738    0.3943 O.2     1  LIG1       -0.2974
     22 H          -2.7711   -1.5711   -1.8558 H       1  LIG1        0.0274
     23 H          -3.2743    0.1273   -1.5686 H       1  LIG1        0.0274
     24 H          -1.6344    0.8551   -2.5921 H       1  LIG1        0.0268
     25 H          -1.0799    1.8734   -1.2325 H       1  LIG1        0.0268
     26 H           0.2420    2.3728   -3.2686 H       1  LIG1        0.0271
     27 H           0.6586    0.6344   -3.4468 H       1  LIG1        0.0271
     28 H           2.0318   -0.4954   -1.8540 H       1  LIG1        0.0309
     29 H           3.1090    1.0480    0.5459 H       1  LIG1        0.0268
     30 H           3.7794   -0.4444   -0.2119 H       1  LIG1        0.0268
     31 H           4.8501    0.8577   -1.8723 H       1  LIG1        0.0290
     32 H           4.4066    2.2890   -0.8734 H       1  LIG1        0.0290
     33 H           3.0609    1.1386   -3.3309 H       1  LIG1        0.0598
     34 H           1.2150    3.7046   -1.3455 H       1  LIG1        0.0235
     35 H           2.2458    2.9047   -0.1197 H       1  LIG1        0.0235
     36 H           0.4900    2.5693   -0.1675 H       1  LIG1        0.0235
     37 H          -2.3137    1.4137    0.3577 H       1  LIG1        0.0235
     38 H          -1.1928    0.6349    1.5168 H       1  LIG1        0.0235
     39 H          -2.9175    0.1787    1.4997 H       1  LIG1        0.0235
     40 H          -4.5497   -0.5293    0.4262 H       1  LIG1        0.0341
     41 H          -5.0539   -1.5254   -0.9749 H       1  LIG1        0.0341
     42 H          -2.4063   -3.4748    1.7533 H       1  LIG1        0.0344
     43 H          -2.8242   -1.7876    2.1903 H       1  LIG1        0.0344
     44 H          -1.2748   -2.7286   -0.2857 H       1  LIG1        0.0310
     45 H           0.0252   -2.8804    1.8066 H       1  LIG1        0.0268
     46 H          -0.3288   -1.1631    2.1793 H       1  LIG1        0.0268
     47 H           1.1816   -2.2291   -0.2818 H       1  LIG1        0.0268
     48 H           1.9129   -1.3820    1.1232 H       1  LIG1        0.0268
     49 H           0.5890    0.6564    0.6003 H       1  LIG1        0.0306
     50 H          -0.3767   -1.0573   -1.7661 H       1  LIG1        0.0308
     51 H           4.0267    3.3856   -3.3375 H       1  LIG1        0.2098
@<TRIPOS>BOND
     1     2     1    1
     2     2    11    1
     3     4     3    1
     4     5     4    1
     5     5     6    1
     6     6    18    1
     7     7     8    1
     8     8     9    1
     9     9     5    1
    10     5    10    1
    11    13    12    1
    12    14    13    1
    13    15    14    1
    14    15     2    1
    15    16    15    1
    16    17    16    1
    17    18    17    1
    18     3    19    1
    19     9    20    1
    20    13    21    2
    21     1    12    1
    22     2    19    1
    23    18    19    1
    24     6     7    1
    25     1    22    1
    26     1    23    1
    27     3    24    1
    28     3    25    1
    29     4    26    1
    30     4    27    1
    31     6    28    1
    32     7    29    1
    33     7    30    1
    34     8    31    1
    35     8    32    1
    36     9    33    1
    37    10    34    1
    38    10    35    1
    39    10    36    1
    40    11    37    1
    41    11    38    1
    42    11    39    1
    43    12    40    1
    44    12    41    1
    45    14    42    1
    46    14    43    1
    47    15    44    1
    48    16    45    1
    49    16    46    1
    50    17    47    1
    51    17    48    1
    52    18    49    1
    53    19    50    1
    54    20    51    1
