@<TRIPOS>MOLECULE
Steroids.3
 51 54 0 0 0
SMALL
GASTEIGER

@<TRIPOS>ATOM
      1 C          -3.0554   -0.6708   -0.9535 C.3     1  LIG1       -0.0413
      2 C          -1.7758   -0.5475   -0.0924 C.3     1  LIG1       -0.0078
      3 C          -0.8179    1.2149   -1.7073 C.3     1  LIG1       -0.0485
      4 C           0.3898    1.6405   -2.5748 C.3     1  LIG1       -0.0447
      5 C           1.6636    1.6207   -1.7095 C.3     1  LIG1       -0.0029
      6 C           1.8651    0.1850   -1.2119 C.3     1  LIG1       -0.0298
      7 C           3.2905    0.2046   -0.6380 C.3     1  LIG1       -0.0470
      8 C           4.0476    1.1523   -1.5975 C.3     1  LIG1       -0.0260
      9 C           2.9749    1.8214   -2.4898 C.3     1  LIG1        0.0608
     10 C           1.5725    2.6482   -0.5560 C.3     1  LIG1       -0.0569
     11 C          -1.9967    0.5327    0.9906 C.3     1  LIG1       -0.0555
     12 C          -4.2284   -1.2858   -0.1661 C.3     1  LIG1       -0.0257
     13 C          -3.8173   -2.6835    0.3282 C.3     1  LIG1        0.0589
     14 C          -2.6274   -2.5463    1.2938 C.3     1  LIG1       -0.0050
     15 C          -1.4706   -1.8318    0.6478 C.2     1  LIG1       -0.0648
     16 C          -0.2378   -2.3302    0.7794 C.2     1  LIG1       -0.0838
     17 C           0.9836   -1.6984    0.1726 C.3     1  LIG1       -0.0311
     18 C           0.7364   -0.2394   -0.2560 C.3     1  LIG1       -0.0305
     19 C          -0.6006   -0.1654   -1.0309 C.3     1  LIG1       -0.0285
     20 O           3.2754    3.2388   -2.7404 O.3     1  LIG1       -0.3912
     21 O          -4.9434   -3.3069    1.0379 O.3     1  LIG1       -0.3914
     22 H          -2.8451   -1.3124   -1.8214 H       1  LIG1        0.0274
     23 H          -3.3558    0.3263   -1.3063 H       1  LIG1        0.0274
     24 H          -0.9807    1.9851   -0.9419 H       1  LIG1        0.0268
     25 H          -1.7051    1.1632   -2.3544 H       1  LIG1        0.0268
     26 H           0.2252    2.6526   -2.9723 H       1  LIG1        0.0271
     27 H           0.5034    0.9330   -3.4090 H       1  LIG1        0.0271
     28 H           1.8597   -0.4865   -2.0838 H       1  LIG1        0.0309
     29 H           3.7330   -0.8019   -0.6192 H       1  LIG1        0.0269
     30 H           3.2761    0.6325    0.3751 H       1  LIG1        0.0269
     31 H           4.7536    0.5896   -2.2251 H       1  LIG1        0.0290
     32 H           4.5878    1.9093   -1.0103 H       1  LIG1        0.0290
     33 H           2.9104    1.2728   -3.4411 H       1  LIG1        0.0598
     34 H           1.4501    3.6536   -0.9845 H       1  LIG1        0.0235
     35 H           2.4932    2.6236    0.0442 H       1  LIG1        0.0235
     36 H           0.7143    2.4277    0.0939 H       1  LIG1        0.0235
     37 H          -2.2646    1.4913    0.5250 H       1  LIG1        0.0238
     38 H          -1.0819    0.6577    1.5870 H       1  LIG1        0.0238
     39 H          -2.8144    0.2213    1.6564 H       1  LIG1        0.0238
     40 H          -4.4837   -0.6495    0.6937 H       1  LIG1        0.0290
     41 H          -5.1034   -1.3765   -0.8269 H       1  LIG1        0.0290
     42 H          -3.5292   -3.3090   -0.5298 H       1  LIG1        0.0596
     43 H          -2.3187   -3.5537    1.6110 H       1  LIG1        0.0335
     44 H          -2.9517   -1.9773    2.1774 H       1  LIG1        0.0335
     45 H          -0.1056   -3.2539    1.3418 H       1  LIG1        0.0571
     46 H           1.2562   -2.2836   -0.7182 H       1  LIG1        0.0310
     47 H           1.8180   -1.7279    0.8879 H       1  LIG1        0.0310
     48 H           0.7136    0.4118    0.6286 H       1  LIG1        0.0309
     49 H          -0.5512   -0.9145   -1.8352 H       1  LIG1        0.0311
     50 H           4.0881    3.3998   -3.2052 H       1  LIG1        0.2098
     51 H          -5.2508   -2.8331    1.8021 H       1  LIG1        0.2097
@<TRIPOS>BOND
     1     2     1    1
     2     2    11    1
     3     3    19    1
     4     4     3    1
     5     5     4    1
     6     6     5    1
     7     6     7    1
     8     7     8    1
     9     8     9    1
    10     5    10    1
    11    12    13    1
    12    13    14    1
    13    14    15    1
    14    15    16    2
    15    16    17    1
    16    17    18    1
    17    18     6    1
    18    19     2    1
    19     9    20    1
    20    13    21    1
    21     5     9    1
    22     2    15    1
    23     1    12    1
    24    19    18    1
    25     1    22    1
    26     1    23    1
    27     3    24    1
    28     3    25    1
    29     4    26    1
    30     4    27    1
    31     6    28    1
    32     7    29    1
    33     7    30    1
    34     8    31    1
    35     8    32    1
    36     9    33    1
    37    10    34    1
    38    10    35    1
    39    10    36    1
    40    11    37    1
    41    11    38    1
    42    11    39    1
    43    12    40    1
    44    12    41    1
    45    13    42    1
    46    14    43    1
    47    14    44    1
    48    16    45    1
    49    17    46    1
    50    17    47    1
    51    18    48    1
    52    19    49    1
    53    20    50    1
    54    21    51    1
