@<TRIPOS>MOLECULE
R1
 17 17 0 0 0
SMALL
GASTEIGER
Energy = 0

@<TRIPOS>ATOM
      1 O          -1.1099    1.2639    0.9164 O.3     1  LIG11      -0.4269
      2 C          -0.4093    2.0882    0.0447 C.2     1  LIG11       0.3532
      3 C           0.8167    1.3623   -0.4218 C.2     1  LIG11       0.1318
      4 C           0.8245    0.1344    0.1555 C.2     1  LIG11       0.0469
      5 C          -0.3895    0.0199    1.0820 C.3     1  LIG11       0.2313
      6 H          -0.1155   -0.0931    2.1667 H       1  LIG11       0.1111
      7 O          -1.2916   -1.0046    0.8022 O.3     1  LIG11      -0.3413
      8 C          -1.8802   -0.9974   -0.4956 C.3     1  LIG11       0.0408
      9 H          -2.5659   -1.8810   -0.4763 H       1  LIG11       0.0525
     10 H          -2.4555   -0.0544   -0.6582 H       1  LIG11       0.0525
     11 H          -1.0931   -1.1186   -1.2785 H       1  LIG11       0.0525
     12 C           1.7667   -0.9769    0.0553 C.3     1  LIG11       0.0985
     13 H           1.3490   -1.8808    0.5702 H       1  LIG11       0.0586
     14 BR          2.0908   -1.5238   -1.7632 Br      1  LIG11      -0.0708
     15 BR          3.4308   -0.5806    0.9476 Br      1  LIG11      -0.0708
     16 CL          1.9035    2.0486   -1.4686 Cl      1  LIG11      -0.0759
     17 O          -0.8714    3.1936   -0.1784 O.2     1  LIG11      -0.2439
@<TRIPOS>BOND
     1    14    12    1
     2    16     3    1
     3    11     8    1
     4    10     8    1
     5     8     9    1
     6     8     7    1
     7     3     2    1
     8     3     4    2
     9    17     2    2
    10     2     1    1
    11    12     4    1
    12    12    13    1
    13    12    15    1
    14     4     5    1
    15     7     5    1
    16     1     5    1
    17     5     6    1
