@<TRIPOS>MOLECULE
R10
 14 14 0 0 0
SMALL
GASTEIGER
Energy = 0

@<TRIPOS>ATOM
      1 O          -1.1061    1.2647    0.9189 O.3     1  LIG11      -0.4256
      2 C          -0.4063    2.0881    0.0432 C.2     1  LIG11       0.3543
      3 C           0.8148    1.3643   -0.4245 C.2     1  LIG11       0.1450
      4 C           0.8241    0.1373    0.1599 C.2     1  LIG11       0.1113
      5 C          -0.3931    0.0147    1.0800 C.3     1  LIG11       0.2436
      6 H          -0.1278   -0.1103    2.1650 H       1  LIG11       0.1123
      7 O          -1.3059   -0.9964    0.7851 O.3     1  LIG11      -0.3405
      8 C          -1.8334   -1.0089   -0.5367 C.3     1  LIG11       0.0408
      9 H          -2.5473   -1.8702   -0.5258 H       1  LIG11       0.0525
     10 H          -2.3681   -0.0520   -0.7531 H       1  LIG11       0.0525
     11 H          -1.0154   -1.1809   -1.2780 H       1  LIG11       0.0525
     12 CL          1.9352   -1.0828    0.0075 Cl      1  LIG11      -0.0800
     13 CL          1.9067    2.0341   -1.4781 Cl      1  LIG11      -0.0747
     14 O          -0.8722    3.1932   -0.1790 O.2     1  LIG11      -0.2439
@<TRIPOS>BOND
     1    13     3    1
     2    11     8    1
     3    10     8    1
     4     8     9    1
     5     8     7    1
     6     3     2    1
     7     3     4    2
     8    14     2    2
     9    12     4    1
    10     2     1    1
    11     4     5    1
    12     7     5    1
    13     1     5    1
    14     5     6    1
