@<TRIPOS>MOLECULE
R11
 20 20 0 0 0
SMALL
GASTEIGER
Energy = 0

@<TRIPOS>ATOM
      1 O          -1.1154    1.2636    0.9141 O.3     1  LIG11      -0.4269
      2 C          -0.4083    2.0884    0.0425 C.2     1  LIG11       0.3531
      3 C           0.8083    1.3560   -0.4273 C.2     1  LIG11       0.1296
      4 C           0.8366    0.1349    0.1610 C.2     1  LIG11       0.0200
      5 C          -0.3905    0.0217    1.0809 C.3     1  LIG11       0.2294
      6 H          -0.1381   -0.0863    2.1664 H       1  LIG11       0.1110
      7 O          -1.2532   -0.9771    0.6062 O.3     1  LIG11      -0.3383
      8 C          -2.3931   -1.2364    1.4288 C.3     1  LIG11       0.0492
      9 H          -2.9962   -0.2991    1.5451 H       1  LIG11       0.0558
     10 H          -2.9608   -1.9806    0.8034 H       1  LIG11       0.0558
     11 C          -2.0217   -1.8144    2.7727 C.3     1  LIG11      -0.0414
     12 H          -2.9042   -2.3390    3.2088 H       1  LIG11       0.0252
     13 H          -1.1767   -2.5369    2.6789 H       1  LIG11       0.0252
     14 H          -1.7199   -1.0057    3.4834 H       1  LIG11       0.0252
     15 C           1.7875   -0.9652    0.0123 C.3     1  LIG11      -0.0360
     16 H           1.2415   -1.8807   -0.3365 H       1  LIG11       0.0277
     17 H           2.5935   -0.7147   -0.7214 H       1  LIG11       0.0277
     18 H           2.2590   -1.2049    0.9988 H       1  LIG11       0.0277
     19 CL          1.8812    2.0289   -1.5107 Cl      1  LIG11      -0.0760
     20 O          -0.8695    3.1978   -0.1728 O.2     1  LIG11      -0.2439
@<TRIPOS>BOND
     1    19     3    1
     2    17    15    1
     3     3     2    1
     4     3     4    2
     5    16    15    1
     6    20     2    2
     7    15     4    1
     8    15    18    1
     9     2     1    1
    10     4     5    1
    11     7     5    1
    12     7     8    1
    13    10     8    1
    14     1     5    1
    15     5     6    1
    16     8     9    1
    17     8    11    1
    18    13    11    1
    19    11    12    1
    20    11    14    1
