@<TRIPOS>MOLECULE
R13
 17 17 0 0 0
SMALL
GASTEIGER
Energy = 0

@<TRIPOS>ATOM
      1 O          -1.1007    1.2749    0.9327 O.3     1  LIG11      -0.4272
      2 C          -0.4105    2.0900    0.0421 C.2     1  LIG11       0.3528
      3 C           0.8137    1.3562   -0.4175 C.2     1  LIG11       0.1267
      4 C           0.8289    0.1368    0.1645 C.2     1  LIG11       0.0089
      5 H           1.5400   -0.6818    0.0551 H       1  LIG11       0.0650
      6 C          -0.3934    0.0113    1.0607 C.3     1  LIG11       0.2268
      7 H          -0.1639   -0.1398    2.1461 H       1  LIG11       0.1107
      8 O          -1.2636   -0.9494    0.5265 O.3     1  LIG11      -0.3385
      9 C          -2.4178   -1.2168    1.3306 C.3     1  LIG11       0.0492
     10 H          -2.8776   -0.2550    1.6753 H       1  LIG11       0.0558
     11 H          -3.1078   -1.7291    0.6055 H       1  LIG11       0.0558
     12 C          -2.0869   -2.1203    2.4945 C.3     1  LIG11      -0.0414
     13 H          -3.0325   -2.4408    2.9952 H       1  LIG11       0.0252
     14 H          -1.5390   -3.0274    2.1439 H       1  LIG11       0.0252
     15 H          -1.4507   -1.5916    3.2442 H       1  LIG11       0.0252
     16 CL          1.9116    2.0280   -1.4707 Cl      1  LIG11      -0.0763
     17 O          -0.8770    3.1933   -0.1840 O.2     1  LIG11      -0.2439
@<TRIPOS>BOND
     1    16     3    1
     2     3     2    1
     3     3     4    2
     4    17     2    2
     5     2     1    1
     6     5     4    1
     7     4     6    1
     8     8     6    1
     9     8     9    1
    10    11     9    1
    11     1     6    1
    12     6     7    1
    13     9    10    1
    14     9    12    1
    15    14    12    1
    16    12    13    1
    17    12    15    1
