@<TRIPOS>MOLECULE
R16
 13 13 0 0 0
SMALL
GASTEIGER
Energy = 0

@<TRIPOS>ATOM
      1 O          -1.1043    1.2696    0.9300 O.3     1  LIG11      -0.4571
      2 C          -0.4018    2.0851    0.0428 C.2     1  LIG11       0.3323
      3 C           0.8083    1.3596   -0.4248 C.2     1  LIG11       0.0261
      4 H           1.5106    1.8032   -1.1303 H       1  LIG11       0.0690
      5 C           0.8238    0.1451    0.1705 C.2     1  LIG11      -0.0114
      6 C          -0.3923    0.0134    1.0612 C.3     1  LIG11       0.1155
      7 H          -1.0846   -0.7978    0.7250 H       1  LIG11       0.0746
      8 H          -0.1255   -0.1037    2.1404 H       1  LIG11       0.0746
      9 C           1.8211   -0.9232    0.0506 C.3     1  LIG11       0.0473
     10 H           2.7018   -0.5961   -0.5558 H       1  LIG11       0.0476
     11 H           2.1646   -1.2603    1.0622 H       1  LIG11       0.0476
     12 CL          1.1558   -2.3367   -0.7492 Cl      1  LIG11      -0.1206
     13 O          -0.8726    3.1896   -0.1812 O.2     1  LIG11      -0.2456
@<TRIPOS>BOND
     1     4     3    1
     2    12     9    1
     3    10     9    1
     4     3     2    1
     5     3     5    2
     6    13     2    2
     7     2     1    1
     8     9     5    1
     9     9    11    1
    10     5     6    1
    11     7     6    1
    12     1     6    1
    13     6     8    1
