@<TRIPOS>MOLECULE
R17
 13 13 0 0 0
SMALL
GASTEIGER
Energy = 0

@<TRIPOS>ATOM
      1 O          -1.1057    1.2669    0.9285 O.3     1  LIG11      -0.4570
      2 C          -0.4010    2.0858    0.0438 C.2     1  LIG11       0.3324
      3 C           0.8114    1.3600   -0.4252 C.2     1  LIG11       0.0275
      4 H           1.5154    1.8036   -1.1291 H       1  LIG11       0.0690
      5 C           0.8220    0.1453    0.1673 C.2     1  LIG11       0.0062
      6 C          -0.3928    0.0154    1.0652 C.3     1  LIG11       0.1169
      7 H          -1.0843   -0.7986    0.7353 H       1  LIG11       0.0746
      8 H          -0.1183   -0.0961    2.1440 H       1  LIG11       0.0746
      9 C           1.7872   -0.9600    0.0638 C.3     1  LIG11       0.1324
     10 H           1.2864   -1.9538    0.2029 H       1  LIG11       0.0682
     11 CL          2.5616   -1.0180   -1.5098 Cl      1  LIG11      -0.0996
     12 CL          2.9848   -0.8320    1.3467 Cl      1  LIG11      -0.0996
     13 O          -0.8728    3.1890   -0.1811 O.2     1  LIG11      -0.2456
@<TRIPOS>BOND
     1    11     9    1
     2     4     3    1
     3     3     2    1
     4     3     5    2
     5    13     2    2
     6     2     1    1
     7     9     5    1
     8     9    10    1
     9     9    12    1
    10     5     6    1
    11     7     6    1
    12     1     6    1
    13     6     8    1
