@<TRIPOS>MOLECULE
R7
 13 13 0 0 0
SMALL
GASTEIGER
Energy = 0

@<TRIPOS>ATOM
      1 O          -1.1034    1.2693    0.9256 O.3     1  LIG11      -0.4560
      2 C          -0.4056    2.0904    0.0449 C.2     1  LIG11       0.3510
      3 C           0.8110    1.3583   -0.4228 C.2     1  LIG11       0.1283
      4 C           0.8237    0.1364    0.1690 C.2     1  LIG11       0.0071
      5 C          -0.3887    0.0158    1.0631 C.3     1  LIG11       0.1169
      6 H          -1.0839   -0.7976    0.7360 H       1  LIG11       0.0746
      7 H          -0.1154   -0.0925    2.1435 H       1  LIG11       0.0746
      8 C           1.7914   -0.9557    0.0206 C.3     1  LIG11       0.0487
      9 H           1.2703   -1.9126   -0.2363 H       1  LIG11       0.0477
     10 H           2.5586   -0.7222   -0.7598 H       1  LIG11       0.0477
     11 CL          2.6638   -1.2457    1.5156 Cl      1  LIG11      -0.1206
     12 CL          1.8950    2.0239   -1.4928 Cl      1  LIG11      -0.0760
     13 O          -0.8757    3.1923   -0.1813 O.2     1  LIG11      -0.2440
@<TRIPOS>BOND
     1    12     3    1
     2    10     8    1
     3     3     2    1
     4     3     4    2
     5     9     8    1
     6    13     2    2
     7     8     4    1
     8     8    11    1
     9     2     1    1
    10     4     5    1
    11     6     5    1
    12     1     5    1
    13     5     7    1
