@<TRIPOS>MOLECULE
R8
 17 17 0 0 0
SMALL
GASTEIGER
Energy = 0

@<TRIPOS>ATOM
      1 O          -1.1097    1.2643    0.9181 O.3     1  LIG11      -0.4271
      2 C          -0.4064    2.0873    0.0436 C.2     1  LIG11       0.3487
      3 C           0.8186    1.3616   -0.4249 C.2     1  LIG11       0.1080
      4 C           0.8231    0.1380    0.1580 C.2     1  LIG11       0.0332
      5 C          -0.3918    0.0204    1.0801 C.3     1  LIG11       0.2302
      6 H          -0.1220   -0.1030    2.1649 H       1  LIG11       0.1110
      7 O          -1.2953   -1.0016    0.7866 O.3     1  LIG11      -0.3413
      8 C          -1.8568   -0.9939   -0.5216 C.3     1  LIG11       0.0408
      9 H          -2.5688   -1.8577   -0.5077 H       1  LIG11       0.0525
     10 H          -2.3986   -0.0372   -0.7100 H       1  LIG11       0.0525
     11 H          -1.0548   -1.1505   -1.2836 H       1  LIG11       0.0525
     12 C           1.7725   -0.9720    0.0236 C.3     1  LIG11       0.0510
     13 H           1.2322   -1.9523    0.0738 H       1  LIG11       0.0478
     14 H           2.3582   -0.9070   -0.9273 H       1  LIG11       0.0478
     15 CL          2.9350   -0.9642    1.3372 Cl      1  LIG11      -0.1205
     16 BR          2.0244    2.1020   -1.5882 Br      1  LIG11      -0.0427
     17 O          -0.8727    3.1909   -0.1764 O.2     1  LIG11      -0.2443
@<TRIPOS>BOND
     1    16     3    1
     2    11     8    1
     3    14    12    1
     4    10     8    1
     5     8     9    1
     6     8     7    1
     7     3     2    1
     8     3     4    2
     9    17     2    2
    10    12    13    1
    11    12     4    1
    12    12    15    1
    13     2     1    1
    14     4     5    1
    15     7     5    1
    16     1     5    1
    17     5     6    1
