@<TRIPOS>MOLECULE
R9
 13 13 0 0 0
SMALL
GASTEIGER
Energy = 0

@<TRIPOS>ATOM
      1 O          -1.1012    1.2714    0.9281 O.3     1  LIG11      -0.4560
      2 C          -0.4054    2.0892    0.0431 C.2     1  LIG11       0.3509
      3 C           0.8098    1.3582   -0.4241 C.2     1  LIG11       0.1279
      4 C           0.8254    0.1376    0.1723 C.2     1  LIG11       0.0030
      5 C          -0.3912    0.0137    1.0599 C.3     1  LIG11       0.1166
      6 H          -1.0878   -0.7952    0.7255 H       1  LIG11       0.0746
      7 H          -0.1236   -0.1026    2.1402 H       1  LIG11       0.0746
      8 C           1.8091   -0.9363    0.0574 C.3     1  LIG11       0.0295
      9 H           2.7901   -0.5515   -0.3202 H       1  LIG11       0.0429
     10 H           1.9654   -1.4400    1.0416 H       1  LIG11       0.0429
     11 BR          1.2474   -2.3096   -1.1774 Br      1  LIG11      -0.0869
     12 CL          1.8963    2.0215   -1.4928 Cl      1  LIG11      -0.0761
     13 O          -0.8763    3.1924   -0.1807 O.2     1  LIG11      -0.2440
@<TRIPOS>BOND
     1    12     3    1
     2    11     8    1
     3     3     2    1
     4     3     4    2
     5     9     8    1
     6    13     2    2
     7     2     1    1
     8     8     4    1
     9     8    10    1
    10     4     5    1
    11     6     5    1
    12     1     5    1
    13     5     7    1
