@<TRIPOS>MOLECULE
S10
 14 14 0 0 0
SMALL
GASTEIGER
Energy = 0

@<TRIPOS>ATOM
      1 O          -1.1092    1.2654    0.9183 O.3     1  LIG11      -0.4271
      2 C          -0.4052    2.0909    0.0422 C.2     1  LIG11       0.3531
      3 C           0.8117    1.3581   -0.4225 C.2     1  LIG11       0.1296
      4 C           0.8286    0.1352    0.1603 C.2     1  LIG11       0.0198
      5 C          -0.3906    0.0184    1.0770 C.3     1  LIG11       0.2270
      6 H          -0.1355   -0.1243    2.1605 H       1  LIG11       0.1108
      7 O          -1.3013   -0.9738    0.7266 O.3     1  LIG11      -0.3543
      8 H          -1.6995   -0.7418   -0.1231 H       1  LIG11       0.2139
      9 C           1.7841   -0.9636    0.0367 C.3     1  LIG11      -0.0360
     10 H           2.4071   -0.8596   -0.8868 H       1  LIG11       0.0277
     11 H           2.4681   -0.9775    0.9241 H       1  LIG11       0.0277
     12 H           1.2379   -1.9423    0.0002 H       1  LIG11       0.0277
     13 CL          1.8965    2.0312   -1.4890 Cl      1  LIG11      -0.0760
     14 O          -0.8741    3.1943   -0.1769 O.2     1  LIG11      -0.2439
@<TRIPOS>BOND
     1    13     3    1
     2    10     9    1
     3     3     2    1
     4     3     4    2
     5    14     2    2
     6     8     7    1
     7    12     9    1
     8     9     4    1
     9     9    11    1
    10     2     1    1
    11     4     5    1
    12     7     5    1
    13     1     5    1
    14     5     6    1
