@<TRIPOS>MOLECULE
S12
 14 14 0 0 0
SMALL
GASTEIGER
Energy = 0

@<TRIPOS>ATOM
      1 O          -1.1110    1.2643    0.9218 O.3     1  LIG11      -0.4282
      2 C          -0.4009    2.0865    0.0414 C.2     1  LIG11       0.3345
      3 C           0.8107    1.3602   -0.4230 C.2     1  LIG11       0.0274
      4 H           1.5132    1.8114   -1.1220 H       1  LIG11       0.0690
      5 C           0.8275    0.1427    0.1583 C.2     1  LIG11       0.0014
      6 C          -0.3940    0.0186    1.0774 C.3     1  LIG11       0.2256
      7 H          -0.1397   -0.1307    2.1591 H       1  LIG11       0.1108
      8 O          -1.3027   -0.9741    0.7191 O.3     1  LIG11      -0.3543
      9 H          -1.7204   -0.7219   -0.1153 H       1  LIG11       0.2139
     10 C           1.7855   -0.9529    0.0322 C.3     1  LIG11      -0.0374
     11 H           2.4937   -0.7793   -0.8152 H       1  LIG11       0.0276
     12 H           2.3803   -1.0541    0.9770 H       1  LIG11       0.0276
     13 H           1.2400   -1.9174   -0.1403 H       1  LIG11       0.0276
     14 O          -0.8712    3.1903   -0.1775 O.2     1  LIG11      -0.2455
@<TRIPOS>BOND
     1     4     3    1
     2    11    10    1
     3     3     2    1
     4     3     5    2
     5    14     2    2
     6    13    10    1
     7     9     8    1
     8    10     5    1
     9    10    12    1
    10     2     1    1
    11     5     6    1
    12     8     6    1
    13     1     6    1
    14     6     7    1
