@<TRIPOS>MOLECULE
S2
 14 14 0 0 0
SMALL
GASTEIGER
Energy = 0

@<TRIPOS>ATOM
      1 O          -1.1114    1.2624    0.9142 O.3     1  LIG11      -0.4270
      2 C          -0.4073    2.0900    0.0447 C.2     1  LIG11       0.3532
      3 C           0.8148    1.3610   -0.4235 C.2     1  LIG11       0.1318
      4 C           0.8254    0.1346    0.1568 C.2     1  LIG11       0.0467
      5 C          -0.3888    0.0205    1.0831 C.3     1  LIG11       0.2291
      6 H          -0.1219   -0.1083    2.1662 H       1  LIG11       0.1109
      7 O          -1.2930   -0.9808    0.7528 O.3     1  LIG11      -0.3542
      8 H          -1.7031   -0.7641   -0.0983 H       1  LIG11       0.2139
      9 C           1.7583   -0.9839    0.0465 C.3     1  LIG11       0.0985
     10 H           1.3425   -1.8812    0.5718 H       1  LIG11       0.0586
     11 BR          2.0441   -1.5394   -1.7761 Br      1  LIG11      -0.0708
     12 BR          3.4391   -0.5950    0.9099 Br      1  LIG11      -0.0708
     13 CL          1.8962    2.0421   -1.4779 Cl      1  LIG11      -0.0759
     14 O          -0.8715    3.1940   -0.1769 O.2     1  LIG11      -0.2439
@<TRIPOS>BOND
     1    11     9    1
     2    13     3    1
     3     3     2    1
     4     3     4    2
     5    14     2    2
     6     8     7    1
     7     2     1    1
     8     9     4    1
     9     9    10    1
    10     9    12    1
    11     4     5    1
    12     7     5    1
    13     1     5    1
    14     5     6    1
