@<TRIPOS>MOLECULE
S4
 14 14 0 0 0
SMALL
GASTEIGER
Energy = 0

@<TRIPOS>ATOM
      1 O          -1.1090    1.2645    0.9178 O.3     1  LIG11      -0.4271
      2 C          -0.4074    2.0898    0.0445 C.2     1  LIG11       0.3531
      3 C           0.8134    1.3595   -0.4227 C.2     1  LIG11       0.1310
      4 C           0.8269    0.1361    0.1588 C.2     1  LIG11       0.0374
      5 C          -0.3904    0.0178    1.0788 C.3     1  LIG11       0.2284
      6 H          -0.1308   -0.1239    2.1606 H       1  LIG11       0.1109
      7 O          -1.2982   -0.9757    0.7271 O.3     1  LIG11      -0.3542
      8 H          -1.7233   -0.7275   -0.1065 H       1  LIG11       0.2139
      9 C           1.7796   -0.9676    0.0185 C.3     1  LIG11       0.0513
     10 H           1.2448   -1.9506    0.0549 H       1  LIG11       0.0478
     11 H           2.3698   -0.8847   -0.9287 H       1  LIG11       0.0478
     12 CL          2.9383   -0.9708    1.3382 Cl      1  LIG11      -0.1205
     13 CL          1.8971    2.0341   -1.4855 Cl      1  LIG11      -0.0759
     14 O          -0.8724    3.1947   -0.1787 O.2     1  LIG11      -0.2439
@<TRIPOS>BOND
     1    13     3    1
     2    11     9    1
     3     3     2    1
     4     3     4    2
     5    14     2    2
     6     8     7    1
     7     9    10    1
     8     9     4    1
     9     9    12    1
    10     2     1    1
    11     4     5    1
    12     7     5    1
    13     1     5    1
    14     5     6    1
