@<TRIPOS>MOLECULE
S7
 11 11 0 0 0
SMALL
GASTEIGER
Energy = 0

@<TRIPOS>ATOM
      1 O          -1.1071    1.2654    0.9203 O.3     1  LIG11      -0.4265
      2 C          -0.4058    2.0883    0.0436 C.2     1  LIG11       0.3495
      3 C           0.8157    1.3621   -0.4273 C.2     1  LIG11       0.1176
      4 C           0.8281    0.1390    0.1602 C.2     1  LIG11       0.0837
      5 C          -0.3969    0.0162    1.0791 C.3     1  LIG11       0.2370
      6 H          -0.1378   -0.1306    2.1618 H       1  LIG11       0.1117
      7 O          -1.3116   -0.9668    0.7266 O.3     1  LIG11      -0.3537
      8 H          -1.7009   -0.7391   -0.1301 H       1  LIG11       0.2139
      9 BR          2.0598   -1.1976   -0.0145 Br      1  LIG11      -0.0472
     10 BR          2.0257    2.0792   -1.5940 Br      1  LIG11      -0.0419
     11 O          -0.8728    3.1914   -0.1775 O.2     1  LIG11      -0.2443
@<TRIPOS>BOND
     1    10     3    1
     2     3     2    1
     3     3     4    2
     4    11     2    2
     5     8     7    1
     6     9     4    1
     7     2     1    1
     8     4     5    1
     9     7     5    1
    10     1     5    1
    11     5     6    1
