@<TRIPOS>MOLECULE
S9
 14 14 0 0 0
SMALL
GASTEIGER
Energy = 0

@<TRIPOS>ATOM
      1 O          -1.1102    1.2646    0.9172 O.3     1  LIG11      -0.4274
      2 C          -0.4025    2.0878    0.0419 C.2     1  LIG11       0.3487
      3 C           0.8151    1.3606   -0.4260 C.2     1  LIG11       0.1066
      4 C           0.8268    0.1372    0.1594 C.2     1  LIG11       0.0155
      5 C          -0.3937    0.0211    1.0801 C.3     1  LIG11       0.2267
      6 H          -0.1341   -0.1223    2.1608 H       1  LIG11       0.1108
      7 O          -1.2986   -0.9763    0.7293 O.3     1  LIG11      -0.3543
      8 H          -1.7234   -0.7300   -0.1046 H       1  LIG11       0.2139
      9 C           1.7749   -0.9666    0.0413 C.3     1  LIG11      -0.0364
     10 H           2.3089   -0.9445   -0.9412 H       1  LIG11       0.0277
     11 H           2.5423   -0.8993    0.8577 H       1  LIG11       0.0277
     12 H           1.2391   -1.9447    0.1429 H       1  LIG11       0.0277
     13 BR          2.0182    2.0942   -1.5976 Br      1  LIG11      -0.0428
     14 O          -0.8745    3.1911   -0.1741 O.2     1  LIG11      -0.2443
@<TRIPOS>BOND
     1    13     3    1
     2    10     9    1
     3     3     2    1
     4     3     4    2
     5    14     2    2
     6     8     7    1
     7     9    12    1
     8     9     4    1
     9     9    11    1
    10     2     1    1
    11     4     5    1
    12     7     5    1
    13     1     5    1
    14     5     6    1
