@<TRIPOS>MOLECULE
15747
 29 31 0 0 0
SMALL
GASTEIGER
Energy = 0

@<TRIPOS>ATOM
      1 C           4.4151   -1.5502    0.3022 C.3     1  LIG11       0.0249
      2 S           3.5153   -1.9457    1.8342 S.3     1  LIG11      -0.0989
      3 C           1.9599   -2.2730    1.0596 C.ar    1  LIG11       0.1298
      4 N           1.5740   -3.5158    0.6943 N.ar    1  LIG11      -0.2060
      5 C           0.4416   -3.7289   -0.0190 C.ar    1  LIG11       0.2155
      6 N           0.1822   -4.9759   -0.4607 N.pl3   1  LIG11      -0.3274
      7 C           4.1675   -2.6972   -0.6868 C.ar    1  LIG11      -0.0372
      8 C           3.2200   -2.5667   -1.7093 C.ar    1  LIG11      -0.0578
      9 C           2.9688   -3.6319   -2.5786 C.ar    1  LIG11      -0.0615
     10 C           3.6777   -4.8285   -2.4420 C.ar    1  LIG11      -0.0617
     11 C           4.6394   -4.9564   -1.4360 C.ar    1  LIG11      -0.0615
     12 C           4.8824   -3.8933   -0.5612 C.ar    1  LIG11      -0.0578
     13 C           1.0735   -1.2463    0.7540 C.ar    1  LIG11       0.1395
     14 C          -0.1124   -1.4867    0.0788 C.ar    1  LIG11       0.1638
     15 N          -0.4315   -2.7355   -0.3054 N.ar    1  LIG11      -0.1952
     16 N           1.0979    0.0751    0.9764 N.ar    1  LIG11      -0.2316
     17 C           0.0491    0.6087    0.5046 C.ar    1  LIG11       0.0957
     18 N          -0.7247   -0.2864   -0.0508 N.ar    1  LIG11      -0.3291
     19 H          -1.6321   -0.1205   -0.5067 H       1  LIG11       0.1682
     20 H          -0.1572    1.6786    0.5672 H       1  LIG11       0.1027
     21 H          -0.6761   -5.1647   -0.9954 H       1  LIG11       0.1452
     22 H           0.8502   -5.7358   -0.2725 H       1  LIG11       0.1452
     23 H           5.4881   -1.4521    0.5247 H       1  LIG11       0.0429
     24 H           4.0492   -0.5891   -0.0901 H       1  LIG11       0.0429
     25 H           3.4817   -5.6568   -3.1159 H       1  LIG11       0.0618
     26 H           5.1970   -5.8823   -1.3332 H       1  LIG11       0.0618
     27 H           5.6268   -4.0020    0.2211 H       1  LIG11       0.0621
     28 H           2.6679   -1.6401   -1.8307 H       1  LIG11       0.0621
     29 H           2.2214   -3.5301   -3.3595 H       1  LIG11       0.0618
@<TRIPOS>BOND
     1    29     9    1
     2    25    10    1
     3     9    10   ar
     4     9     8   ar
     5    10    11   ar
     6    28     8    1
     7     8     7   ar
     8    11    26    1
     9    11    12   ar
    10    21     6    1
    11     7    12   ar
    12     7     1    1
    13    12    27    1
    14    19    18    1
    15     6    22    1
    16     6     5    1
    17    15     5   ar
    18    15    14   ar
    19    24     1    1
    20    18    14   ar
    21    18    17   ar
    22     5     4   ar
    23    14    13   ar
    24     1    23    1
    25     1     2    1
    26    17    20    1
    27    17    16   ar
    28     4     3   ar
    29    13    16   ar
    30    13     3   ar
    31     3     2    1
