@<TRIPOS>MOLECULE
348400
 46 50 0 0 0
SMALL
GASTEIGER
Energy = 0

@<TRIPOS>ATOM
      1 N           3.1891   -1.1486   -1.2224 N.ar    1  LIG11      -0.0477
      2 C           3.7490   -0.3421   -0.4226 C.ar    1  LIG11       0.1501
      3 C           4.1665    0.8597   -1.1030 C.ar    1  LIG11       0.1653
      4 C           4.8582    1.9324   -0.3745 C.ar    1  LIG11       0.1569
      5 C           5.0719    1.7373    0.9361 C.ar    1  LIG11      -0.0281
      6 C           4.6349    0.5077    1.6418 C.ar    1  LIG11      -0.0435
      7 C           3.9992   -0.4933    1.0179 C.ar    1  LIG11       0.0452
      8 N           3.8582    0.8226   -2.3302 N.ar    1  LIG11      -0.0466
      9 O           3.2322   -0.4403   -2.4457 O.2     1  LIG11      -0.2415
     10 N           5.2453    3.0202   -0.9721 N.pl3   1  LIG11       0.0587
     11 S           3.4769   -1.9475    1.9160 S.3     1  LIG11      -0.0653
     12 N           1.0916    0.0722    0.9885 N.ar    1  LIG11      -0.2313
     13 O           5.0382    3.1670   -2.1551 O.2     1  LIG11      -0.1261
     14 O           5.8127    3.8857   -0.3451 O.2     1  LIG11      -0.1261
     15 C           1.9612   -2.2730    1.0619 C.ar    1  LIG11       0.1342
     16 N           1.5876   -3.5124    0.6709 N.ar    1  LIG11      -0.2057
     17 C           0.4285   -3.7320    0.0025 C.ar    1  LIG11       0.2155
     18 N          -0.4326   -2.7344   -0.3036 N.ar    1  LIG11      -0.1949
     19 C          -0.1095   -1.4851    0.0745 C.ar    1  LIG11       0.1685
     20 C           1.0715   -1.2476    0.7577 C.ar    1  LIG11       0.1401
     21 C           0.0493    0.6078    0.5041 C.ar    1  LIG11       0.1004
     22 N          -0.7203   -0.2843   -0.0641 N.ar    1  LIG11      -0.2855
     23 C1*        -1.9947   -0.0547   -0.7241 C.3     1  LIG11       0.1667
     24 O4*        -2.3564    1.3342   -0.6015 O.3     1  LIG11      -0.3457
     25 C4*        -3.7831    1.4020   -0.4709 C.3     1  LIG11       0.1126
     26 C3*        -4.0429    0.2599    0.5319 C.3     1  LIG11       0.1135
     27 C2*        -3.1554   -0.8539   -0.0690 C.3     1  LIG11       0.1285
     28 N           0.1220   -4.9924   -0.3715 N.pl3   1  LIG11      -0.3274
     29 C5*        -4.2621    2.7702    0.0662 C.3     1  LIG11       0.0730
     30 O5*        -5.6559    2.6566    0.4133 O.3     1  LIG11      -0.3924
     31 O3*        -5.4284   -0.1240    0.5980 O.3     1  LIG11      -0.3864
     32 O2*        -3.8837   -1.5659   -1.0899 O.3     1  LIG11      -0.3847
     33 H           5.5828    2.4980    1.5272 H       1  LIG11       0.0641
     34 H           4.8375    0.4221    2.7096 H       1  LIG11       0.0630
     35 H          -0.1544    1.6773    0.5670 H       1  LIG11       0.1030
     36 H          -0.7522   -5.1796   -0.8812 H       1  LIG11       0.1452
     37 H           0.7641   -5.7651   -0.1488 H       1  LIG11       0.1452
     38 H1*        -1.9085   -0.3255   -1.7897 H       1  LIG11       0.0866
     39 H4*        -4.2844    1.1737   -1.4279 H       1  LIG11       0.0647
     40 H2*        -2.8027   -1.5554    0.7065 H       1  LIG11       0.0665
     41 H3*        -3.6547    0.5446    1.5262 H       1  LIG11       0.0647
     42 H2*        -4.6811   -1.9556   -0.7415 H       1  LIG11       0.2101
     43 H5*1       -4.1010    3.5357   -0.7115 H       1  LIG11       0.0584
     44 H5*2       -3.6642    3.0385    0.9534 H       1  LIG11       0.0584
     45 H3*        -5.9772    0.6149    0.8515 H       1  LIG11       0.2100
     46 H5*        -6.0229    3.4723    0.7433 H       1  LIG11       0.2095
@<TRIPOS>BOND
     1     9     8   ar
     2     9     1   ar
     3     8     3   ar
     4    13    10    2
     5    38    23    1
     6    39    25    1
     7     1     2   ar
     8     3     2   ar
     9     3     4   ar
    10    32    42    1
    11    32    27    1
    12    10     4    1
    13    10    14    2
    14    36    28    1
    15    23    24    1
    16    23    27    1
    17    23    22    1
    18    43    29    1
    19    24    25    1
    20    25    29    1
    21    25    26    1
    22     2     7   ar
    23     4     5   ar
    24    28    37    1
    25    28    17    1
    26    18    17   ar
    27    18    19   ar
    28    27    26    1
    29    27    40    1
    30    22    19   ar
    31    22    21   ar
    32    17    16   ar
    33    29    30    1
    34    29    44    1
    35    19    20   ar
    36    30    46    1
    37    21    35    1
    38    21    12   ar
    39    26    31    1
    40    26    41    1
    41    31    45    1
    42    16    15   ar
    43    20    12   ar
    44    20    15   ar
    45     5    33    1
    46     5     6   ar
    47     7     6   ar
    48     7    11    1
    49    15    11    1
    50     6    34    1
