@<TRIPOS>MOLECULE
39055
 25 28 0 0 0
SMALL
GASTEIGER
Energy = 0

@<TRIPOS>ATOM
      1 C           0.0468    0.6088    0.5056 C.ar    1  LIG11       0.0957
      2 N           1.0903    0.0754    0.9875 N.ar    1  LIG11      -0.2316
      3 C           1.0742   -1.2457    0.7566 C.ar    1  LIG11       0.1398
      4 C          -0.1067   -1.4861    0.0746 C.ar    1  LIG11       0.1620
      5 N          -0.7186   -0.2866   -0.0609 N.ar    1  LIG11      -0.3292
      6 N          -0.4311   -2.7340   -0.3074 N.ar    1  LIG11      -0.2163
      7 C           0.4261   -3.7355    0.0024 C.ar    1  LIG11       0.1196
      8 N           1.5835   -3.5127    0.6738 N.ar    1  LIG11      -0.2265
      9 C           1.9628   -2.2724    1.0601 C.ar    1  LIG11       0.1337
     10 S           3.4842   -1.9488    1.9063 S.3     1  LIG11      -0.0457
     11 C           4.0123   -0.5672    0.9303 C.ar    1  LIG11       0.1337
     12 C           3.8706   -0.5597   -0.4543 C.ar    1  LIG11       0.1398
     13 C           4.2655    0.5249   -1.2202 C.ar    1  LIG11       0.1620
     14 N           3.9816    0.2075   -2.5047 N.ar    1  LIG11      -0.3292
     15 C           3.4547   -0.9888   -2.5048 C.ar    1  LIG11       0.0957
     16 N           3.3818   -1.4531   -1.3277 N.ar    1  LIG11      -0.2316
     17 N           4.8084    1.6078   -0.6367 N.ar    1  LIG11      -0.2163
     18 C           4.9622    1.5943    0.7084 C.ar    1  LIG11       0.1196
     19 N           4.5827    0.5361    1.4672 N.ar    1  LIG11      -0.2265
     20 H          -1.6214   -0.1245   -0.5243 H       1  LIG11       0.1682
     21 H          -0.1567    1.6794    0.5722 H       1  LIG11       0.1027
     22 H           0.1805   -4.7494   -0.2951 H       1  LIG11       0.1048
     23 H           4.1561    0.8062   -3.3216 H       1  LIG11       0.1682
     24 H           3.1136   -1.5410   -3.3828 H       1  LIG11       0.1027
     25 H           5.4034    2.4573    1.1957 H       1  LIG11       0.1048
@<TRIPOS>BOND
     1    24    15    1
     2    23    14    1
     3    15    14   ar
     4    15    16   ar
     5    14    13   ar
     6    16    12   ar
     7    13    17   ar
     8    13    12   ar
     9    17    18   ar
    10    20     5    1
    11    12    11   ar
    12     6     7   ar
    13     6     4   ar
    14    22     7    1
    15     5     4   ar
    16     5     1   ar
    17     7     8   ar
    18     4     3   ar
    19     1    21    1
    20     1     2   ar
    21     8     9   ar
    22    18    25    1
    23    18    19   ar
    24     3     2   ar
    25     3     9   ar
    26    11    19   ar
    27    11    10    1
    28     9    10    1
