@<TRIPOS>MOLECULE
40818
 28 30 0 0 0
SMALL
GASTEIGER
Energy = 0

@<TRIPOS>ATOM
      1 C           3.2143    2.0394   -1.2287 C.ar    1  LIG11      -0.0617
      2 C           3.8470    2.1150    0.0152 C.ar    1  LIG11      -0.0615
      3 C           4.2128    0.9450    0.6869 C.ar    1  LIG11      -0.0571
      4 C           3.9479   -0.3075    0.1215 C.ar    1  LIG11      -0.0304
      5 C           3.3210   -0.3767   -1.1283 C.ar    1  LIG11      -0.0571
      6 C           2.9522    0.7919   -1.8005 C.ar    1  LIG11      -0.0615
      7 C           4.3291   -1.5932    0.8694 C.3     1  LIG11       0.0357
      8 N           3.1911   -2.0245    1.7045 N.pl3   1  LIG11      -0.3231
      9 C           1.9632   -2.2730    1.0539 C.ar    1  LIG11       0.1500
     10 C           1.0714   -1.2456    0.7578 C.ar    1  LIG11       0.1472
     11 C          -0.1082   -1.4855    0.0740 C.ar    1  LIG11       0.1627
     12 N          -0.7158   -0.2845   -0.0660 N.ar    1  LIG11      -0.3292
     13 C           0.0485    0.6099    0.5041 C.ar    1  LIG11       0.0957
     14 N           1.0869    0.0745    0.9951 N.ar    1  LIG11      -0.2308
     15 N          -0.4306   -2.7346   -0.3054 N.ar    1  LIG11      -0.2162
     16 C           0.4246   -3.7371    0.0081 C.ar    1  LIG11       0.1205
     17 N           1.5873   -3.5129    0.6708 N.ar    1  LIG11      -0.2186
     18 H           2.9282    2.9479   -1.7497 H       1  LIG11       0.0618
     19 H           4.0534    3.0836    0.4601 H       1  LIG11       0.0618
     20 H           4.7005    1.0150    1.6537 H       1  LIG11       0.0621
     21 H           3.1109   -1.3408   -1.5812 H       1  LIG11       0.0621
     22 H           2.4606    0.7295   -2.7665 H       1  LIG11       0.0618
     23 H           5.2272   -1.4371    1.4889 H       1  LIG11       0.0511
     24 H           4.5615   -2.3944    0.1496 H       1  LIG11       0.0511
     25 H           3.0279   -1.3242    2.5137 H       1  LIG11       0.1479
     26 H          -1.6130   -0.1201   -0.5393 H       1  LIG11       0.1682
     27 H          -0.1521    1.6811    0.5659 H       1  LIG11       0.1027
     28 H           0.1719   -4.7518   -0.2801 H       1  LIG11       0.1048
@<TRIPOS>BOND
     1    22     6    1
     2     6     1   ar
     3     6     5   ar
     4    18     1    1
     5    21     5    1
     6     1     2   ar
     7     5     4   ar
     8    26    12    1
     9    15    16   ar
    10    15    11   ar
    11    28    16    1
    12    12    11   ar
    13    12    13   ar
    14    16    17   ar
    15     2    19    1
    16     2     3   ar
    17    11    10   ar
    18     4     3   ar
    19     4     7    1
    20    24     7    1
    21    13    27    1
    22    13    14   ar
    23    17     9   ar
    24     3    20    1
    25    10    14   ar
    26    10     9   ar
    27     7    23    1
    28     7     8    1
    29     9     8    1
    30     8    25    1
