@<TRIPOS>MOLECULE
52383
 28 30 0 0 0
SMALL
GASTEIGER
Energy = 0

@<TRIPOS>ATOM
      1 C           1.9594   -0.2403   -2.7103 C.3     1  LIG11      -0.0106
      2 S           3.6193    0.4953   -2.8488 S.3     1  LIG11      -0.0894
      3 C           3.9691    0.5720   -1.1181 C.ar    1  LIG11       0.1904
      4 N           3.8787   -0.5509   -0.3806 N.ar    1  LIG11      -0.2140
      5 C           3.9036   -0.4881    0.9644 C.ar    1  LIG11       0.1227
      6 C           4.2387    0.7084    1.6024 C.ar    1  LIG11       0.0869
      7 C           4.4637    1.8287    0.7976 C.ar    1  LIG11       0.1486
      8 N           4.3154    1.7394   -0.5400 N.ar    1  LIG11      -0.2091
      9 CL          4.9345    3.3615    1.5011 Cl      1  LIG11      -0.0607
     10 BR          4.3742    0.8091    3.4485 Br      1  LIG11      -0.0444
     11 S           3.4870   -1.9356    1.8917 S.3     1  LIG11      -0.0467
     12 C           1.9633   -2.2722    1.0579 C.ar    1  LIG11       0.1355
     13 C           1.0718   -1.2479    0.7540 C.ar    1  LIG11       0.1399
     14 C          -0.1106   -1.4852    0.0724 C.ar    1  LIG11       0.1639
     15 N          -0.7200   -0.2836   -0.0603 N.ar    1  LIG11      -0.3291
     16 C           0.0479    0.6086    0.5078 C.ar    1  LIG11       0.0957
     17 N           1.0915    0.0720    0.9872 N.ar    1  LIG11      -0.2316
     18 N          -0.4297   -2.7344   -0.3092 N.ar    1  LIG11      -0.1952
     19 C           0.4283   -3.7326    0.0049 C.ar    1  LIG11       0.2155
     20 N           1.5848   -3.5134    0.6779 N.ar    1  LIG11      -0.2057
     21 N           0.1226   -4.9926   -0.3652 N.pl3   1  LIG11      -0.3274
     22 H           1.3110    0.4198   -2.1156 H       1  LIG11       0.0345
     23 H           1.5316   -0.3586   -3.7164 H       1  LIG11       0.0345
     24 H           2.0209   -1.2261   -2.2250 H       1  LIG11       0.0345
     25 H          -1.6233   -0.1153   -0.5237 H       1  LIG11       0.1682
     26 H          -0.1574    1.6783    0.5744 H       1  LIG11       0.1027
     27 H          -0.7501   -5.1815   -0.8767 H       1  LIG11       0.1452
     28 H           0.7623   -5.7653   -0.1358 H       1  LIG11       0.1452
@<TRIPOS>BOND
     1    23     1    1
     2     2     1    1
     3     2     3    1
     4     1    24    1
     5     1    22    1
     6     3     8   ar
     7     3     4   ar
     8    27    21    1
     9     8     7   ar
    10    25    15    1
    11     4     5   ar
    12    21    28    1
    13    21    19    1
    14    18    19   ar
    15    18    14   ar
    16    15    14   ar
    17    15    16   ar
    18    19    20   ar
    19    14    13   ar
    20    16    26    1
    21    16    17   ar
    22    20    12   ar
    23    13    17   ar
    24    13    12   ar
    25     7     9    1
    26     7     6   ar
    27     5     6   ar
    28     5    11    1
    29    12    11    1
    30     6    10    1
