@<TRIPOS>MOLECULE
76519
 79 84 0 0 0
SMALL
GASTEIGER
Energy = 0

@<TRIPOS>ATOM
      1 O          -1.1274    2.3834   -1.8329 O.2     1  LIG11      -0.2449
      2 C          -2.1003    2.2522   -2.5599 C.2     1  LIG11       0.3397
      3 O          -2.5930    1.0377   -2.8374 O.3     1  LIG11      -0.4494
      4 C          -1.8563   -0.0535   -2.2396 C.3     1  LIG11       0.1874
      5 C          -2.0082   -0.0590   -0.6954 C.3     1  LIG11       0.1789
      6 O          -2.8595   -1.1723   -0.3885 O.3     1  LIG11      -0.3422
      7 C          -3.5957   -1.5182   -1.5710 C.3     1  LIG11       0.1357
      8 C          -2.5080   -1.3923   -2.6639 C.3     1  LIG11       0.1735
      9 O          -3.0554   -1.2312   -3.9902 O.3     1  LIG11      -0.4512
     10 C          -3.2770   -2.3616   -4.6715 C.2     1  LIG11       0.3396
     11 O          -2.8062   -3.4315   -4.3193 O.2     1  LIG11      -0.2449
     12 C          -6.6202   -3.0311  -10.3704 C.3     1  LIG11       0.0788
     13 O          -6.5616   -2.0180   -9.3537 O.3     1  LIG11      -0.4951
     14 C          -5.7431   -2.1415   -8.2224 C.ar    1  LIG11       0.1201
     15 C          -5.6759   -1.0691   -7.3298 C.ar    1  LIG11      -0.0192
     16 C          -4.8715   -1.1358   -6.1895 C.ar    1  LIG11      -0.0443
     17 C          -4.1269   -2.2888   -5.9218 C.ar    1  LIG11       0.0592
     18 C          -4.9940   -3.2957   -7.9566 C.ar    1  LIG11      -0.0192
     19 C          -4.1884   -3.3635   -6.8151 C.ar    1  LIG11      -0.0443
     20 C          -4.2110   -2.9281   -1.3736 C.3     1  LIG11       0.1226
     21 O          -4.7727   -3.5320   -2.5536 O.3     1  LIG11      -0.4584
     22 C          -5.8340   -2.9065   -3.0785 C.2     1  LIG11       0.3393
     23 O          -6.3170   -1.9099   -2.5651 O.2     1  LIG11      -0.2450
     24 C          -7.8816   -6.3517   -8.3622 C.3     1  LIG11       0.0788
     25 O          -8.1537   -5.0291   -7.8703 O.3     1  LIG11      -0.4951
     26 C          -7.5592   -4.5327   -6.7016 C.ar    1  LIG11       0.1201
     27 C          -7.9472   -3.2737   -6.2356 C.ar    1  LIG11      -0.0192
     28 C          -7.4030   -2.7446   -5.0618 C.ar    1  LIG11      -0.0443
     29 C          -6.4407   -3.4655   -4.3475 C.ar    1  LIG11       0.0592
     30 C          -6.5921   -5.2528   -5.9880 C.ar    1  LIG11      -0.0192
     31 C          -6.0351   -4.7170   -4.8231 C.ar    1  LIG11      -0.0443
     32 N          -0.7217   -0.2839   -0.0600 N.ar    1  LIG11      -0.2845
     33 C          -0.1117   -1.4853    0.0784 C.ar    1  LIG11       0.1666
     34 C           1.0715   -1.2464    0.7583 C.ar    1  LIG11       0.1394
     35 C           1.9548   -2.2744    1.0714 C.ar    1  LIG11       0.1246
     36 S           3.4666   -1.9559    1.9315 S.3     1  LIG11      -0.1212
     37 N           1.5899   -3.5120    0.6656 N.ar    1  LIG11      -0.2272
     38 C           0.4300   -3.7358   -0.0019 C.ar    1  LIG11       0.1196
     39 N          -0.4308   -2.7357   -0.3034 N.ar    1  LIG11      -0.2160
     40 N           1.0952    0.0749    0.9819 N.ar    1  LIG11      -0.2314
     41 C           0.0502    0.6098    0.5022 C.ar    1  LIG11       0.1004
     42 C          -4.2471    8.1910   -4.6144 C.3     1  LIG11       0.0788
     43 O          -4.6760    6.8381   -4.8394 O.3     1  LIG11      -0.4951
     44 C          -4.0189    5.7405   -4.2648 C.ar    1  LIG11       0.1201
     45 C          -4.5002    4.4570   -4.5364 C.ar    1  LIG11      -0.0192
     46 C          -3.8830    3.3289   -3.9886 C.ar    1  LIG11      -0.0443
     47 C          -2.7684    3.4730   -3.1559 C.ar    1  LIG11       0.0592
     48 C          -2.9014    5.8846   -3.4315 C.ar    1  LIG11      -0.0192
     49 C          -2.2828    4.7565   -2.8831 C.ar    1  LIG11      -0.0443
     50 H          -0.8029   -0.0239   -2.5686 H       1  LIG11       0.0819
     51 H          -2.4961    0.8571   -0.3244 H       1  LIG11       0.0878
     52 H          -4.3755   -0.7592   -1.7486 H       1  LIG11       0.0670
     53 H          -1.7506   -2.1892   -2.5599 H       1  LIG11       0.0801
     54 H          -5.6291   -3.1962  -10.8199 H       1  LIG11       0.0660
     55 H          -7.0173   -3.9753   -9.9707 H       1  LIG11       0.0660
     56 H          -7.3038   -2.6768  -11.1557 H       1  LIG11       0.0660
     57 H          -6.2587   -0.1760   -7.5299 H       1  LIG11       0.0654
     58 H          -4.8336   -0.2887   -5.5116 H       1  LIG11       0.0627
     59 H          -5.0215   -4.1527   -8.6181 H       1  LIG11       0.0654
     60 H          -3.6075   -4.2599   -6.6213 H       1  LIG11       0.0627
     61 H          -4.9551   -2.8961   -0.5610 H       1  LIG11       0.0725
     62 H          -3.3975   -3.5975   -1.0546 H       1  LIG11       0.0725
     63 H          -6.8229   -6.4627   -8.6420 H       1  LIG11       0.0660
     64 H          -8.1603   -7.1138   -7.6183 H       1  LIG11       0.0660
     65 H          -8.4938   -6.5057   -9.2628 H       1  LIG11       0.0660
     66 H          -8.6804   -2.7043   -6.7973 H       1  LIG11       0.0654
     67 H          -7.7273   -1.7705   -4.7095 H       1  LIG11       0.0627
     68 H          -6.2538   -6.2278   -6.3160 H       1  LIG11       0.0654
     69 H          -5.2790   -5.2820   -4.2866 H       1  LIG11       0.0627
     70 H           3.5632   -2.8721    2.3396 H       1  LIG11       0.1086
     71 H           0.1845   -4.7480   -0.3038 H       1  LIG11       0.1048
     72 H          -0.1558    1.6796    0.5626 H       1  LIG11       0.1030
     73 H          -4.3089    8.4535   -3.5471 H       1  LIG11       0.0660
     74 H          -3.2232    8.3487   -4.9868 H       1  LIG11       0.0660
     75 H          -4.9241    8.8538   -5.1731 H       1  LIG11       0.0660
     76 H          -5.3649    4.3413   -5.1817 H       1  LIG11       0.0654
     77 H          -4.2751    2.3421   -4.2146 H       1  LIG11       0.0627
     78 H          -2.4936    6.8597   -3.1942 H       1  LIG11       0.0654
     79 H          -1.4173    4.8820   -2.2396 H       1  LIG11       0.0627
@<TRIPOS>BOND
     1    56    12    1
     2    54    12    1
     3    12    55    1
     4    12    13    1
     5    13    14    1
     6    65    24    1
     7    63    24    1
     8    59    18    1
     9    24    25    1
    10    24    64    1
    11    14    18   ar
    12    14    15   ar
    13    18    19   ar
    14    25    26    1
    15    57    15    1
    16    15    16   ar
    17    19    60    1
    18    19    17   ar
    19    66    27    1
    20    26    27   ar
    21    26    30   ar
    22    68    30    1
    23    27    28   ar
    24    16    17   ar
    25    16    58    1
    26    30    31   ar
    27    17    10    1
    28    76    45    1
    29    75    42    1
    30    28    67    1
    31    28    29   ar
    32    74    42    1
    33    43    42    1
    34    43    44    1
    35    31    29   ar
    36    31    69    1
    37    10    11    2
    38    10     9    1
    39    42    73    1
    40    45    44   ar
    41    45    46   ar
    42    29    22    1
    43    44    48   ar
    44    77    46    1
    45     9     8    1
    46    46    47   ar
    47    48    78    1
    48    48    49   ar
    49    47    49   ar
    50    47     2    1
    51    22    23    2
    52    22    21    1
    53    49    79    1
    54     3     2    1
    55     3     4    1
    56     8    53    1
    57     8     4    1
    58     8     7    1
    59    50     4    1
    60     2     1    2
    61    21    20    1
    62     4     5    1
    63    52     7    1
    64     7    20    1
    65     7     6    1
    66    20    62    1
    67    20    61    1
    68     5     6    1
    69     5    51    1
    70     5    32    1
    71    71    38    1
    72    39    38   ar
    73    39    33   ar
    74    32    33   ar
    75    32    41   ar
    76    38    37   ar
    77    33    34   ar
    78    41    72    1
    79    41    40   ar
    80    37    35   ar
    81    34    40   ar
    82    34    35   ar
    83    35    36    1
    84    36    70    1
