@<TRIPOS>MOLECULE
CPD_16-b
 74 76 0 0 0
SMALL
GASTEIGER

@<TRIPOS>ATOM
      1 C1          3.6288   -8.4257   13.6290 C.3     1  TOS111     -0.1840
      2 ****        4.4730   -6.2784   14.6066 H       1  TOS111      0.1411
      3 C3          9.1533   -6.5946   14.5036 C.3     1  TOS111     -0.1641
      4 C4          8.7720   -9.3381   13.4575 C.3     1  TOS111     -0.1956
      5 ****        6.8423   -5.0535   15.0805 O.3     1  TOS111     -0.2333
      6 ****        5.7621   -4.1520   15.4135 C.3     1  TOS111     -0.0565
      7 ****        6.2061   -3.2119   15.7756 H       1  TOS111      0.1177
      8 ****        6.7456   -9.2792   10.4312 H       2  APM222      0.1174
      9 ****        5.2134  -10.4507    8.6855 H       2  APM222      0.1152
     10 ****        6.1521   -9.0704    8.1061 H       2  APM222      0.1107
     11 ****        2.7924  -10.3100    8.5823 H       2  APM222      0.1307
     12 ****        5.1013   -6.8140    7.7511 H       2  APM222      0.1645
     13 ****        3.0900   -5.6837    6.8849 H       2  APM222      0.1662
     14 ****        0.9056   -6.7528    7.0183 H       2  APM222      0.1356
     15 ****        4.0287  -10.1182   10.9768 H       2  APM222      0.2283
     16 ****       -1.5942   -9.4343    7.0089 H       2  APM222      0.2734
     17 ****       -0.5693   -8.1510    6.3784 H       2  APM222      0.2934
     18 ****        0.8157  -10.7871    9.1569 H       2  APM222      0.2938
     19 ****       -0.8009  -10.9391    8.4822 H       2  APM222      0.2731
     20 ****        7.5596   -6.2986    8.4356 H       3  PIP333      0.0943
     21 ****        7.8711   -7.8354    9.2388 H       3  PIP333      0.1050
     22 ****        9.6651   -6.1672    9.6782 H       3  PIP333      0.1077
     23 ****        8.8737   -6.7272   11.1807 H       3  PIP333      0.0950
     24 ****       10.8869   -3.7649   10.9784 C.3     4  SULFONYL44   -0.8069
     25 S1          9.3215   -3.4834   10.1233 S.O2    4  SULFONYL44    2.5872
     26 ****        6.8718   -3.4820   11.4756 H       3  PIP333      0.1339
     27 ****        7.0834   -5.0779   12.2381 H       3  PIP333      0.1033
     28 ****        4.9859   -4.9954   10.8535 H       3  PIP333      0.1311
     29 ****        5.9542   -4.5854    9.4219 H       3  PIP333      0.0841
     30 S           5.7803  -10.4475   12.6097 S.O2    1  TOS111      2.6310
     31 O1          6.9407  -11.1775   12.1486 O.2     1  TOS111     -0.8805
     32 O2          4.8268  -11.1433   13.4561 O.2     1  TOS111     -0.8655
     33 C1          6.2228   -8.8943   13.4055 C.ar    1  TOS111     -0.7364
     34 C2          5.1304   -8.0921   13.7676 C.ar    1  TOS111      0.0668
     35 C3          5.3541   -6.8405   14.3357 C.ar    1  TOS111     -0.2355
     36 C4          6.6382   -6.3424   14.5511 C.ar    1  TOS111      0.1599
     37 C5          7.7373   -7.1553   14.2323 C.ar    1  TOS111     -0.1267
     38 C6          7.5328   -8.4424   13.6925 C.ar    1  TOS111      0.0671
     39 ****        5.0931   -4.5102   16.2085 H       1  TOS111      0.0771
     40 C           5.4750   -7.5303   10.4877 C.2     2  APM222      0.2789
     41 CA          5.6988   -9.0070   10.2408 C.3     2  APM222      0.0503
     42 CB          5.3263   -9.3589    8.7722 C.3     2  APM222     -0.1257
     43 CG          4.0608   -8.6411    8.2582 C.ar    2  APM222     -0.0571
     44 CD1         2.8170   -9.2846    8.2415 C.ar    2  APM222     -0.0718
     45 CD2         4.1507   -7.3343    7.7703 C.ar    2  APM222     -0.0521
     46 CE1         1.6477   -8.6525    7.7852 C.ar    2  APM222     -0.1439
     47 CE2         3.0083   -6.6879    7.2920 C.ar    2  APM222     -0.1099
     48 CZ          1.7685   -7.3254    7.3365 C.ar    2  APM222     -0.0814
     49 CF          0.3056   -9.3731    7.7681 C.3     2  APM222      0.3425
     50 O           4.4252   -7.2735   11.0522 O.2     2  APM222     -0.3687
     51 N           4.9678   -9.8416   11.1912 N.3     2  APM222     -0.8340
     52 NG1        -0.6804   -8.9559    7.0062 N.3     2  APM222     -0.3302
     53 NG2         0.0977  -10.4348    8.5137 N.3     2  APM222     -0.3291
     54 N1          6.3296   -6.5331   10.1069 N.am    3  PIP333     -0.3376
     55 C2          7.6001   -6.7899    9.4205 C.3     3  PIP333     -0.0350
     56 C3          8.7302   -6.1431   10.2581 C.3     3  PIP333     -0.0180
     57 N4          8.3462   -4.7792   10.6052 N.3     3  PIP333     -0.8135
     58 C5          7.0742   -4.5456   11.2776 C.3     3  PIP333     -0.0291
     59 C6          5.9677   -5.1381   10.3756 C.3     3  PIP333     -0.0304
     60 O           8.7719   -2.2415   10.6320 O.2     4  SULFONYL44   -0.8769
     61 O           9.5567   -3.6070    8.6985 O.2     4  SULFONYL44   -0.8850
     62 ****       10.7334   -3.7285   12.0670 H       4  SULFONYL44    0.1429
     63 ****       11.5836   -2.9651   10.6858 H       4  SULFONYL44    0.1543
     64 ****       11.3270   -4.7340   10.7046 H       4  SULFONYL44    0.1328
     65 ****        5.1496   -3.9428   14.5256 H       1  TOS111      0.0641
     66 ****        3.3701   -9.3443   13.1027 H       1  TOS111      0.0836
     67 ****        3.1125   -7.6052   13.1065 H       1  TOS111      0.1009
     68 ****        3.2053   -8.4900   14.6430 H       1  TOS111      0.0992
     69 ****        9.1543   -5.5785   14.9164 H       1  TOS111      0.1005
     70 ****        9.7294   -6.5555   13.5653 H       1  TOS111      0.0706
     71 ****        9.6787   -7.2198   15.2437 H       1  TOS111      0.0904
     72 ****        8.9044   -9.6304   12.4081 H       1  TOS111      0.1001
     73 ****        8.6879  -10.2339   14.0872 H       1  TOS111      0.1069
     74 ****        9.7196   -8.8690   13.7367 H       1  TOS111      0.0918
@<TRIPOS>BOND
     1    34     1    1
     2    35     2    1
     3    37     3    1
     4    38     4    1
     5    36     5    1
     6     5     6    1
     7     6     7    1
     8    41     8    1
     9    42     9    1
    10    42    10    1
    11    44    11    1
    12    45    12    1
    13    47    13    1
    14    48    14    1
    15    51    15    1
    16    52    16    1
    17    52    17    1
    18    53    18    1
    19    53    19    1
    20    55    20    1
    21    55    21    1
    22    56    22    1
    23    56    23    1
    24    57    25    1
    25    25    60    2
    26    58    26    1
    27    58    27    1
    28    59    28    1
    29    59    29    1
    30    30    33    1
    31    30    32    2
    32    30    31    2
    33    33    38   ar
    34    33    34   ar
    35    34    35   ar
    36    35    36   ar
    37     6    39    1
    38    36    37   ar
    39    37    38   ar
    40    40    50    2
    41    40    41    1
    42    41    51    1
    43    41    42    1
    44    42    43    1
    45    43    45   ar
    46    43    44   ar
    47    44    46   ar
    48    46    49    1
    49    46    48   ar
    50    48    47   ar
    51    47    45   ar
    52    49    53    1
    53    49    52    1
    54    59    54    1
    55    54    55    1
    56    55    56    1
    57    56    57    1
    58    57    58    1
    59    58    59    1
    60    40    54   am
    61    51    30    1
    62    25    61    2
    63    25    24    1
    64    24    62    1
    65    24    63    1
    66    24    64    1
    67     6    65    1
    68     1    66    1
    69     1    67    1
    70     1    68    1
    71     3    69    1
    72     3    70    1
    73     3    71    1
    74     4    72    1
    75     4    73    1
    76     4    74    1
