@<TRIPOS>MOLECULE
CPD_30-b
 66 70 0 0 0
SMALL
GASTEIGER

@<TRIPOS>ATOM
      1 C1          3.8361   -6.3364   15.2124 C.ar    4  NAPHTHALENE44   -0.1045
      2 C2          4.0187   -5.1269   15.8884 C.ar    4  NAPHTHALENE44   -0.1294
      3 C3          5.2962   -4.5721   15.9952 C.ar    4  NAPHTHALENE44   -0.0995
      4 C4          6.3940   -5.2494   15.4568 C.ar    4  NAPHTHALENE44   -0.1287
      5 ****        6.7717   -9.6892   10.2084 H       2  APM222      0.1305
      6 ****        5.1840  -10.6149    8.4626 H       2  APM222      0.1156
      7 ****        6.1070   -9.2056    7.8955 H       2  APM222      0.1111
      8 ****        2.7183  -10.4493    8.5537 H       2  APM222      0.1331
      9 ****        5.0511   -6.9373    7.7208 H       2  APM222      0.1636
     10 ****        2.9886   -5.6892    7.1924 H       2  APM222      0.1665
     11 ****        0.7896   -6.8034    7.3274 H       2  APM222      0.1335
     12 ****        3.9650  -10.0077   10.8846 H       2  APM222      0.2200
     13 ****       -1.6407   -9.3624    7.1182 H       2  APM222      0.2720
     14 ****       -0.5714   -8.0437    6.6139 H       2  APM222      0.2967
     15 ****        0.8572  -10.9404    9.0820 H       2  APM222      0.2982
     16 ****       -0.8125  -11.0391    8.4978 H       2  APM222      0.2726
     17 N1          6.5108   -6.7898   10.1295 N.am    3  TETRAHYDROQUINOLINE33   -0.2667
     18 C1          7.7728   -7.1257    9.4475 C.3     3  TETRAHYDROQUINOLINE33   -0.0273
     19 C2          8.9463   -6.2509    9.9324 C.3     3  TETRAHYDROQUINOLINE33   -0.1761
     20 C3          8.6159   -4.7846    9.6071 C.3     3  TETRAHYDROQUINOLINE33   -0.1219
     21 C4          7.0088   -3.0688   10.4713 C.ar    3  TETRAHYDROQUINOLINE33   -0.1072
     22 C5          5.7959   -2.6430   11.0127 C.ar    3  TETRAHYDROQUINOLINE33   -0.1385
     23 S           5.6413  -10.4925   12.6484 S.O2    1  TOS111      2.5899
     24 O1          6.9410  -11.0923   12.4146 O.2     1  TOS111     -0.8563
     25 O2          4.6205  -11.2647   13.3267 O.2     1  TOS111     -0.8554
     26 C5          7.3276   -7.2255   14.3926 C.ar    4  NAPHTHALENE44   -0.1250
     27 C6          7.1513   -8.4871   13.8195 C.ar    4  NAPHTHALENE44   -0.0641
     28 C7          5.8662   -8.9615   13.5406 C.ar    4  NAPHTHALENE44   -0.7198
     29 C8          4.7599   -8.2177   13.9651 C.ar    4  NAPHTHALENE44    0.0259
     30 C9          4.9330   -7.0189   14.6686 C.ar    4  NAPHTHALENE44   -0.0554
     31 C10         6.2207   -6.4928   14.8382 C.ar    4  NAPHTHALENE44    0.0120
     32 H1          2.8338   -6.7427   15.1182 H       4  NAPHTHALENE44    0.1343
     33 C           5.6065   -7.7935   10.3736 C.2     2  APM222      0.2744
     34 CA          5.7715   -9.2635   10.0530 C.3     2  APM222      0.0408
     35 CB          5.3158   -9.5293    8.5905 C.3     2  APM222     -0.1221
     36 CG          4.0244   -8.7770    8.2096 C.ar    2  APM222     -0.0513
     37 CD1         2.7754   -9.4103    8.2494 C.ar    2  APM222     -0.0731
     38 CD2         4.0927   -7.4397    7.7995 C.ar    2  APM222     -0.0523
     39 CE1         1.6071   -8.7263    7.8869 C.ar    2  APM222     -0.1515
     40 CE2         2.9292   -6.7337    7.4844 C.ar    2  APM222     -0.1026
     41 CZ          1.6884   -7.3719    7.5446 C.ar    2  APM222     -0.0880
     42 CF          0.2628   -9.4302    7.8525 C.3     2  APM222      0.3321
     43 O           4.5113   -7.6269   10.8776 O.2     2  APM222     -0.3680
     44 N           4.9526   -9.9643   11.0351 N.3     2  APM222     -0.8087
     45 NG1        -0.7148   -8.9097    7.1539 N.3     2  APM222     -0.3280
     46 NG2         0.0925  -10.5448    8.5166 N.3     2  APM222     -0.3243
     47 C6          4.8115   -3.5916   11.2720 C.ar    3  TETRAHYDROQUINOLINE33   -0.1214
     48 C7          5.0463   -4.9361   10.9887 C.ar    3  TETRAHYDROQUINOLINE33   -0.1484
     49 C8          6.2606   -5.4004   10.4381 C.ar    3  TETRAHYDROQUINOLINE33    0.0794
     50 C9          7.2432   -4.4234   10.1915 C.ar    3  TETRAHYDROQUINOLINE33   -0.1024
     51 H2          7.6363   -7.0229    8.3588 H       3  TETRAHYDROQUINOLINE33    0.0801
     52 H3          8.1485   -8.1364    9.6417 H       3  TETRAHYDROQUINOLINE33    0.0958
     53 H2          3.1689   -4.6159   16.3317 H       4  NAPHTHALENE44    0.1398
     54 H3          5.4367   -3.6194   16.4969 H       4  NAPHTHALENE44    0.1419
     55 H4          7.3800   -4.8001   15.5291 H       4  NAPHTHALENE44    0.1422
     56 H5          8.3309   -6.8227   14.4942 H       4  NAPHTHALENE44    0.1437
     57 H6          8.0194   -9.0981   13.5970 H       4  NAPHTHALENE44    0.1530
     58 H8          3.7638   -8.5876   13.7466 H       4  NAPHTHALENE44    0.1383
     59 H4          9.8869   -6.5504    9.4358 H       3  TETRAHYDROQUINOLINE33    0.1051
     60 H5          9.0698   -6.3789   11.0211 H       3  TETRAHYDROQUINOLINE33    0.1048
     61 H6          8.5865   -4.6384    8.5156 H       3  TETRAHYDROQUINOLINE33    0.0924
     62 H7          9.4166   -4.1478   10.0194 H       3  TETRAHYDROQUINOLINE33    0.1041
     63 ****        7.7718   -2.3244   10.2688 H       3  TETRAHYDROQUINOLINE33    0.1401
     64 ****        5.6111   -1.5960   11.2313 H       3  TETRAHYDROQUINOLINE33    0.1406
     65 ****        3.8580   -3.2837   11.6946 H       3  TETRAHYDROQUINOLINE33    0.1373
     66 ****        4.2010   -5.5479   11.2371 H       3  TETRAHYDROQUINOLINE33    0.1565
@<TRIPOS>BOND
     1    23    28    1
     2    26    27   ar
     3    26    31   ar
     4    26    56    1
     5    31     4   ar
     6    31    30   ar
     7    30     1   ar
     8    34     5    1
     9    35     6    1
    10    35     7    1
    11    37     8    1
    12    38     9    1
    13    40    10    1
    14    41    11    1
    15    44    12    1
    16    45    13    1
    17    45    14    1
    18    46    15    1
    19    46    16    1
    20    33    17   am
    21    21    63    1
    22    21    50   ar
    23    21    22   ar
    24    22    64    1
    25    22    47   ar
    26    47    65    1
    27    47    48   ar
    28    48    66    1
    29    48    49   ar
    30    30    29   ar
    31    23    25    2
    32    23    24    2
    33    29    28   ar
    34    29    58    1
    35    28    27   ar
    36    27    57    1
    37     1     2   ar
    38     1    32    1
    39    33    43    2
    40    33    34    1
    41    34    44    1
    42    34    35    1
    43    35    36    1
    44    36    38   ar
    45    36    37   ar
    46    37    39   ar
    47    39    42    1
    48    39    41   ar
    49    41    40   ar
    50    40    38   ar
    51    42    46    1
    52    42    45    1
    53    49    17    1
    54    49    50   ar
    55    50    20    1
    56    20    62    1
    57    20    61    1
    58    20    19    1
    59    44    23    1
    60    19    60    1
    61    19    59    1
    62     2     3   ar
    63     2    53    1
    64     3     4   ar
    65     3    54    1
    66     4    55    1
    67    19    18    1
    68    18    52    1
    69    18    51    1
    70    18    17    1
