@<TRIPOS>MOLECULE
cpd_01
 43 46 0 0 0
SMALL
GASTEIGER
Energy = 0

@<TRIPOS>ATOM
      1 C1          0.0861    0.0480   -0.1397 C.2     1  <0>1        0.3229
      2 C2          3.1062    0.6549   -2.0754 C.ar    1  <0>1        0.0093
      3 C3          3.8851    1.5928   -2.7475 C.ar    1  <0>1        0.0452
      4 C4          3.6484    2.9505   -2.5502 C.ar    1  <0>1       -0.0414
      5 C5          2.6200    3.3668   -1.7023 C.ar    1  <0>1       -0.0349
      6 C6          1.8095    2.4362   -1.0318 C.ar    1  <0>1        0.0829
      7 C7          2.0705    1.0549   -1.2213 C.ar    1  <0>1        0.1988
      8 N1          0.7042    2.8821   -0.2967 N.pl3   1  <0>1       -0.3104
      9 N2          1.3688    0.0580   -0.5525 N.2     1  <0>1       -0.0395
     10 Cl1         5.1330    1.0771   -3.8161 Cl      1  <0>1       -0.0834
     11 C8         -0.8417    1.0461   -0.7440 C.ar    1  <0>1        0.0867
     12 C9         -0.5377    2.4229   -0.7633 C.ar    1  <0>1        0.0464
     13 C10        -1.4475    3.2772   -1.4090 C.ar    1  <0>1       -0.0397
     14 C11        -2.6035    2.7781   -2.0254 C.ar    1  <0>1       -0.0600
     15 C12        -2.8903    1.4193   -1.9955 C.ar    1  <0>1       -0.0608
     16 C13        -2.0097    0.5618   -1.3512 C.ar    1  <0>1       -0.0451
     17 C14         0.5473   -1.9954    1.0839 C.3     1  <0>1        0.0659
     18 N3         -0.3489   -0.8989    0.7315 N.pl3   1  <0>1       -0.2237
     19 C15        -0.2308   -3.1830    1.6499 C.3     1  <0>1       -0.0537
     20 C16        -1.3710   -0.5002    1.6978 C.3     1  <0>1        0.0659
     21 C17        -2.1294   -1.7148    2.2264 C.3     1  <0>1       -0.0537
     22 N4         -1.1896   -2.7686    2.7276 N.4     1  <0>1        0.3826
     23 C18        -1.9557   -3.9536    3.2195 C.3     1  <0>1       -0.1029
     24 H1         -0.6612   -2.3860    3.4959 H       1  <0>1       -0.0819
     25 H2          0.7044    3.9076   -0.2195 H       1  <0>1        0.1523
     26 H3          3.3104   -0.4185   -2.2188 H       1  <0>1        0.0676
     27 H4          4.2662    3.6970   -3.0766 H       1  <0>1        0.0633
     28 H5          2.4364    4.4492   -1.5938 H       1  <0>1        0.0638
     29 H6         -1.2354    4.3573   -1.4835 H       1  <0>1        0.0636
     30 H7         -3.2875    3.4708   -2.5458 H       1  <0>1        0.0618
     31 H8         -3.7809    1.0375   -2.4815 H       1  <0>1        0.0618
     32 H9         -2.2214   -0.5202   -1.3546 H       1  <0>1        0.0627
     33 H10         1.1251   -2.3504    0.1988 H       1  <0>1        0.0707
     34 H11         1.2955   -1.6579    1.8386 H       1  <0>1        0.0707
     35 H12         0.4875   -3.9455    2.0318 H       1  <0>1        0.0095
     36 H13        -0.7912   -3.6680    0.8165 H       1  <0>1        0.0095
     37 H14        -0.8996    0.0357    2.5544 H       1  <0>1        0.0707
     38 H15        -2.1126    0.2078    1.2651 H       1  <0>1        0.0707
     39 H16        -2.7614   -2.1278    1.4058 H       1  <0>1        0.0095
     40 H17        -2.8285   -1.3916    3.0328 H       1  <0>1        0.0095
     41 H18        -2.6549   -3.6724    4.0389 H       1  <0>1        0.0023
     42 H19        -2.5596   -4.4171    2.4076 H       1  <0>1        0.0023
     43 H20        -1.2749   -4.7377    3.6209 H       1  <0>1        0.0023
@<TRIPOS>BOND
     1     1     9    2
     2     1    11    1
     3     1    18    1
     4     2     3   ar
     5     2     7   ar
     6     2    26    1
     7     3    10    1
     8     3     4   ar
     9     4     5   ar
    10     4    27    1
    11     5     6   ar
    12     5    28    1
    13     6     7   ar
    14     6     8    1
    15     7     9    1
    16     8    12    1
    17     8    25    1
    18    11    16   ar
    19    11    12   ar
    20    12    13   ar
    21    13    14   ar
    22    13    29    1
    23    14    15   ar
    24    14    30    1
    25    15    16   ar
    26    15    31    1
    27    16    32    1
    28    17    18    1
    29    17    19    1
    30    17    33    1
    31    17    34    1
    32    18    20    1
    33    19    22    1
    34    19    35    1
    35    19    36    1
    36    20    21    1
    37    20    37    1
    38    20    38    1
    39    21    22    1
    40    21    39    1
    41    21    40    1
    42    22    23    1
    43    22    24    1
    44    23    41    1
    45    23    42    1
    46    23    43    1
