@<TRIPOS>MOLECULE
cpd_16
 51 54 0 0 0
SMALL
GASTEIGER
Energy = 0

@<TRIPOS>ATOM
      1 C1         -1.4665    0.4394   -0.1422 C.ar    1  <0>1        0.0297
      2 C2         -2.5574    0.9079   -0.8918 C.ar    1  <0>1       -0.0380
      3 C3         -2.4400    2.0161   -1.7334 C.ar    1  <0>1       -0.0247
      4 C4         -1.2258    2.6836   -1.8522 C.ar    1  <0>1        0.1235
      5 C5         -0.1296    2.2290   -1.1253 C.ar    1  <0>1       -0.0247
      6 C6         -0.2450    1.1185   -0.2859 C.ar    1  <0>1       -0.0380
      7 N1         -1.6248   -0.6805    0.6859 N.pl3   1  <0>1       -0.3334
      8 C7         -0.4973   -1.6033    0.7090 C.3     1  <0>1       -0.0027
      9 C8         -0.8998   -2.8591    1.4755 C.3     1  <0>1       -0.0744
     10 N2         -1.4817   -2.5322    2.8241 N.4     1  <0>1        0.3818
     11 C9         -2.6705   -1.6161    2.6831 C.3     1  <0>1       -0.0744
     12 C10        -2.3345   -0.3395    1.9153 C.3     1  <0>1       -0.0027
     13 C11        -1.8454   -3.8091    3.5318 C.3     1  <0>1       -0.0878
     14 C12        -2.3560   -3.6300    4.9737 C.3     1  <0>1       -0.0373
     15 C13        -2.6200   -4.9744    5.6702 C.3     1  <0>1        0.0822
     16 C14        -3.2586   -4.7957    7.0316 C.ar    1  <0>1       -0.0157
     17 C15        -4.4477   -5.4644    7.3689 C.ar    1  <0>1       -0.0396
     18 C16        -5.0754   -6.4093    6.3795 C.3     1  <0>1       -0.0038
     19 C17        -4.0411   -6.8445    5.3474 C.3     1  <0>1        0.0524
     20 O1         -3.4671   -5.6806    4.7669 O.3     1  <0>1       -0.3717
     21 C18        -2.6581   -3.9676    7.9936 C.ar    1  <0>1       -0.0559
     22 C19        -3.2343   -3.7933    9.2517 C.ar    1  <0>1       -0.0614
     23 C20        -4.4180   -4.4507    9.5711 C.ar    1  <0>1       -0.0615
     24 C21        -5.0179   -5.2878    8.6340 C.ar    1  <0>1       -0.0582
     25 F1         -1.1130    3.7322   -2.6461 F       1  <0>1       -0.2055
     26 H1         -2.6150   -4.3493    2.9320 H       1  <0>1        0.0060
     27 H2         -0.9536   -4.4782    3.5649 H       1  <0>1        0.0060
     28 H3         -1.6094   -3.0402    5.5525 H       1  <0>1        0.0275
     29 H4         -3.3018   -3.0407    4.9702 H       1  <0>1        0.0275
     30 H5         -1.6624   -5.5276    5.7930 H       1  <0>1        0.0645
     31 H6         -5.4861   -7.3030    6.8998 H       1  <0>1        0.0336
     32 H7         -5.9281   -5.8983    5.8742 H       1  <0>1        0.0336
     33 H8         -3.2496   -7.4784    5.8020 H       1  <0>1        0.0563
     34 H9         -4.5245   -7.4461    4.5494 H       1  <0>1        0.0563
     35 H10        -1.7107   -3.4480    7.7746 H       1  <0>1        0.0621
     36 H11        -2.7505   -3.1403    9.9975 H       1  <0>1        0.0618
     37 H12        -4.8736   -4.3196   10.5676 H       1  <0>1        0.0618
     38 H13        -5.9476   -5.8188    8.8986 H       1  <0>1        0.0620
     39 H14        -3.5300    0.3908   -0.8528 H       1  <0>1        0.0637
     40 H15        -3.3048    2.3683   -2.3197 H       1  <0>1        0.0647
     41 H16         0.8338    2.7575   -1.2245 H       1  <0>1        0.0647
     42 H17         0.6543    0.8069    0.2680 H       1  <0>1        0.0637
     43 H18         0.3866   -1.1522    1.2162 H       1  <0>1        0.0445
     44 H19        -0.1866   -1.8970   -0.3210 H       1  <0>1        0.0445
     45 H20        -0.0084   -3.5225    1.5795 H       1  <0>1        0.0074
     46 H21        -1.6444   -3.4261    0.8686 H       1  <0>1        0.0074
     47 H22        -3.0806   -1.3307    3.6787 H       1  <0>1        0.0074
     48 H23        -3.4895   -2.1490    2.1439 H       1  <0>1        0.0074
     49 H24        -1.7053    0.3168    2.5615 H       1  <0>1        0.0445
     50 H25        -3.2839    0.2114    1.7322 H       1  <0>1        0.0445
     51 H26        -0.7810   -2.0548    3.3692 H       1  <0>1       -0.0817
@<TRIPOS>BOND
     1     9    10    1
     2     1     7    1
     3     1     2   ar
     4     1     6   ar
     5     2    39    1
     6     2     3   ar
     7     3    40    1
     8     3     4   ar
     9     4     5   ar
    10     4    25    1
    11     5     6   ar
    12     5    41    1
    13     6    42    1
    14     7     8    1
    15     7    12    1
    16     8    44    1
    17     8     9    1
    18     8    43    1
    19     9    46    1
    20     9    45    1
    21    10    13    1
    22    10    11    1
    23    10    51    1
    24    11    48    1
    25    11    12    1
    26    11    47    1
    27    12    50    1
    28    12    49    1
    29    13    26    1
    30    13    27    1
    31    13    14    1
    32    14    15    1
    33    14    29    1
    34    14    28    1
    35    15    20    1
    36    15    30    1
    37    15    16    1
    38    16    17   ar
    39    16    21   ar
    40    17    18    1
    41    17    24   ar
    42    18    19    1
    43    18    31    1
    44    18    32    1
    45    19    34    1
    46    19    33    1
    47    19    20    1
    48    21    35    1
    49    21    22   ar
    50    22    23   ar
    51    22    36    1
    52    23    24   ar
    53    23    37    1
    54    24    38    1
