@<TRIPOS>MOLECULE
04
 30 33 0 0 0
SMALL
GASTEIGER

@<TRIPOS>ATOM
      1 C           3.5541    1.3439   -0.1333 C.ar    1  LIG111     -0.0491
      2 C           4.8301    0.7683   -0.0835 C.ar    1  LIG111     -0.0610
      3 C           4.9875   -0.6093    0.0628 C.ar    1  LIG111     -0.0600
      4 C           3.8901   -1.4706    0.1663 C.ar    1  LIG111     -0.0398
      5 C           2.4523    0.5147   -0.0344 C.ar    1  LIG111      0.0447
      6 C           2.6161   -0.9031    0.1170 C.ar    1  LIG111      0.0424
      7 C           1.0031    0.8012   -0.0507 C.2     1  LIG111      0.2095
      8 C           0.3345   -0.5700    0.1021 C.2     1  LIG111      0.0922
      9 N           1.3630   -1.5214    0.1977 N.pl3   1  LIG111     -0.3103
     10 C          -0.9841   -0.8876    0.1429 C.2     1  LIG111      0.0708
     11 C          -2.2065   -0.0869    0.0710 C.ar    1  LIG111      0.0113
     12 C          -3.3257   -1.0008    0.1634 C.ar    1  LIG111      0.0417
     13 C          -2.4557    1.2669   -0.0548 C.ar    1  LIG111     -0.0380
     14 C          -3.7866    1.7207   -0.0912 C.ar    1  LIG111      0.0186
     15 C          -4.8557    0.8318   -0.0023 C.ar    1  LIG111     -0.0460
     16 C          -4.6389   -0.5440    0.1262 C.ar    1  LIG111     -0.0388
     17 C          -1.4528   -2.3195    0.2872 C.2     1  LIG111      0.2508
     18 N          -2.8592   -2.3176    0.2876 N.am    1  LIG111     -0.2809
     19 O           0.4490    1.8879   -0.1624 O.2     1  LIG111     -0.2852
     20 O          -0.7747   -3.3540    0.3892 O.2     1  LIG111     -0.2698
     21 BR         -4.1213    3.5562   -0.2618 Br      1  LIG111     -0.0503
     22 H           3.4280    2.4312   -0.2489 H       1  LIG111      0.0625
     23 H           5.7174    1.4135   -0.1614 H       1  LIG111      0.0618
     24 H           6.0019   -1.0377    0.0990 H       1  LIG111      0.0618
     25 H           4.0322   -2.5533    0.2819 H       1  LIG111      0.0636
     26 H           1.2091   -2.4969    0.2989 H       1  LIG111      0.1523
     27 H          -1.6302    1.9943   -0.1271 H       1  LIG111      0.0635
     28 H          -5.8932    1.2023   -0.0327 H       1  LIG111      0.0629
     29 H          -5.4893   -1.2357    0.1952 H       1  LIG111      0.0637
     30 H          -3.4322   -3.1155    0.3711 H       1  LIG111      0.1552
@<TRIPOS>BOND
     1    21    14    1
     2    22     1    1
     3    19     7    2
     4    23     2    1
     5     1     2   ar
     6     1     5   ar
     7    27    13    1
     8    14    13   ar
     9    14    15   ar
    10     2     3   ar
    11    13    11   ar
    12     7     5    1
    13     7     8    1
    14     5     6   ar
    15    28    15    1
    16    15    16   ar
    17     3    24    1
    18     3     4   ar
    19    11    10    1
    20    11    12   ar
    21     8    10    2
    22     8     9    1
    23     6     4   ar
    24     6     9    1
    25    16    12   ar
    26    16    29    1
    27    10    17    1
    28    12    18    1
    29     4    25    1
    30     9    26    1
    31    17    18   am
    32    17    20    2
    33    18    30    1
