@<TRIPOS>MOLECULE
07
 30 33 0 0 0
SMALL
GASTEIGER

@<TRIPOS>ATOM
      1 C           3.5513    1.3448   -0.1360 C.ar    1  LIG111     -0.0491
      2 C           4.8275    0.7695   -0.0992 C.ar    1  LIG111     -0.0610
      3 C           4.9861   -0.6085    0.0449 C.ar    1  LIG111     -0.0600
      4 C           3.8902   -1.4703    0.1567 C.ar    1  LIG111     -0.0398
      5 C           2.4503    0.5155   -0.0274 C.ar    1  LIG111      0.0447
      6 C           2.6155   -0.9028    0.1197 C.ar    1  LIG111      0.0424
      7 C           1.0010    0.8012   -0.0320 C.2     1  LIG111      0.2095
      8 C           0.3343   -0.5702    0.1160 C.2     1  LIG111      0.0922
      9 N           1.3638   -1.5216    0.2096 N.pl3   1  LIG111     -0.3103
     10 C          -0.9841   -0.8882    0.1553 C.2     1  LIG111      0.0708
     11 C          -2.2047   -0.0872    0.0780 C.ar    1  LIG111      0.0104
     12 C          -3.3260   -1.0008    0.1568 C.ar    1  LIG111      0.0444
     13 C          -2.4559    1.2671   -0.0453 C.ar    1  LIG111     -0.0493
     14 C          -3.7755    1.7311   -0.0931 C.ar    1  LIG111     -0.0258
     15 C          -4.8513    0.8348   -0.0183 C.ar    1  LIG111      0.1252
     16 C          -4.6403   -0.5570    0.1096 C.ar    1  LIG111     -0.0046
     17 C          -1.4540   -2.3207    0.2922 C.2     1  LIG111      0.2508
     18 N          -2.8605   -2.3188    0.2801 N.am    1  LIG111     -0.2808
     19 O           0.4466    1.8895   -0.1305 O.2     1  LIG111     -0.2852
     20 O          -0.7767   -3.3552    0.3960 O.2     1  LIG111     -0.2698
     21 F          -6.1217    1.3009   -0.0685 F       1  LIG111     -0.2054
     22 H           3.4236    2.4323   -0.2487 H       1  LIG111      0.0625
     23 H           5.7142    1.4144   -0.1848 H       1  LIG111      0.0618
     24 H           6.0011   -1.0366    0.0716 H       1  LIG111      0.0618
     25 H           4.0336   -2.5530    0.2694 H       1  LIG111      0.0636
     26 H           1.2100   -2.4983    0.2978 H       1  LIG111      0.1523
     27 H          -1.6359    2.0003   -0.1072 H       1  LIG111      0.0625
     28 H          -3.9736    2.8082   -0.1925 H       1  LIG111      0.0646
     29 H          -5.4960   -1.2420    0.1662 H       1  LIG111      0.0665
     30 H          -3.4350   -3.1160    0.3609 H       1  LIG111      0.1552
@<TRIPOS>BOND
     1    22     1    1
     2    28    14    1
     3    23     2    1
     4     1     2   ar
     5     1     5   ar
     6    19     7    2
     7    27    13    1
     8     2     3   ar
     9    14    13   ar
    10    14    15   ar
    11    21    15    1
    12    13    11   ar
    13     7     5    1
    14     7     8    1
    15     5     6   ar
    16    15    16   ar
    17     3    24    1
    18     3     4   ar
    19    11    10    1
    20    11    12   ar
    21    16    12   ar
    22    16    29    1
    23     8    10    2
    24     8     9    1
    25     6     4   ar
    26     6     9    1
    27    10    17    1
    28     4    25    1
    29    12    18    1
    30     9    26    1
    31    18    17   am
    32    18    30    1
    33    17    20    2
