@<TRIPOS>MOLECULE
08
 30 33 0 0 0
SMALL
GASTEIGER

@<TRIPOS>ATOM
      1 C           3.5515    1.3456   -0.1267 C.ar    1  LIG111     -0.0491
      2 C           4.8280    0.7716   -0.0780 C.ar    1  LIG111     -0.0610
      3 C           4.9868   -0.6065    0.0633 C.ar    1  LIG111     -0.0600
      4 C           3.8904   -1.4694    0.1623 C.ar    1  LIG111     -0.0398
      5 C           2.4503    0.5149   -0.0319 C.ar    1  LIG111      0.0447
      6 C           2.6155   -0.9035    0.1143 C.ar    1  LIG111      0.0424
      7 C           1.0008    0.7994   -0.0495 C.2     1  LIG111      0.2095
      8 C           0.3340   -0.5724    0.0987 C.2     1  LIG111      0.0922
      9 N           1.3634   -1.5238    0.1898 N.pl3   1  LIG111     -0.3103
     10 C          -0.9843   -0.8904    0.1396 C.2     1  LIG111      0.0708
     11 C          -2.2044   -0.0875    0.0689 C.ar    1  LIG111      0.0103
     12 C          -3.3258   -0.9986    0.1686 C.ar    1  LIG111      0.0430
     13 C          -2.4563    1.2655   -0.0627 C.ar    1  LIG111     -0.0507
     14 C          -3.7805    1.7260   -0.0976 C.ar    1  LIG111     -0.0427
     15 C          -4.8461    0.8344   -0.0009 C.ar    1  LIG111      0.0428
     16 C          -4.6404   -0.5482    0.1346 C.ar    1  LIG111     -0.0215
     17 C          -1.4549   -2.3217    0.2873 C.2     1  LIG111      0.2508
     18 N          -2.8605   -2.3170    0.2964 N.am    1  LIG111     -0.2808
     19 O           0.4458    1.8863   -0.1590 O.2     1  LIG111     -0.2852
     20 O          -0.7765   -3.3561    0.3869 O.2     1  LIG111     -0.2698
     21 CL         -6.4421    1.4205   -0.0463 Cl      1  LIG111     -0.0835
     22 H           3.4240    2.4333   -0.2383 H       1  LIG111      0.0625
     23 H           5.7145    1.4181   -0.1526 H       1  LIG111      0.0618
     24 H           6.0019   -1.0338    0.0990 H       1  LIG111      0.0618
     25 H           4.0336   -2.5523    0.2737 H       1  LIG111      0.0636
     26 H           1.2095   -2.4994    0.2912 H       1  LIG111      0.1523
     27 H          -1.6385    1.9991   -0.1418 H       1  LIG111      0.0625
     28 H          -3.9688    2.8055   -0.2027 H       1  LIG111      0.0632
     29 H          -5.4896   -1.2410    0.2100 H       1  LIG111      0.0651
     30 H          -3.4346   -3.1138    0.3818 H       1  LIG111      0.1552
@<TRIPOS>BOND
     1    22     1    1
     2    28    14    1
     3    19     7    2
     4    23     2    1
     5    27    13    1
     6     1     2   ar
     7     1     5   ar
     8    14    13   ar
     9    14    15   ar
    10     2     3   ar
    11    13    11   ar
    12     7     5    1
    13     7     8    1
    14    21    15    1
    15     5     6   ar
    16    15    16   ar
    17     3    24    1
    18     3     4   ar
    19    11    10    1
    20    11    12   ar
    21     8    10    2
    22     8     9    1
    23     6     4   ar
    24     6     9    1
    25    16    12   ar
    26    16    29    1
    27    10    17    1
    28     4    25    1
    29    12    18    1
    30     9    26    1
    31    17    18   am
    32    17    20    2
    33    18    30    1
