@<TRIPOS>MOLECULE
09
 30 33 0 0 0
SMALL
GASTEIGER

@<TRIPOS>ATOM
      1 C           3.5520    1.3448   -0.1338 C.ar    1  LIG111     -0.0491
      2 C           4.8284    0.7702   -0.0891 C.ar    1  LIG111     -0.0610
      3 C           4.9873   -0.6075    0.0557 C.ar    1  LIG111     -0.0600
      4 C           3.8910   -1.4698    0.1618 C.ar    1  LIG111     -0.0398
      5 C           2.4511    0.5149   -0.0321 C.ar    1  LIG111      0.0447
      6 C           2.6164   -0.9032    0.1172 C.ar    1  LIG111      0.0424
      7 C           1.0016    0.8000   -0.0432 C.2     1  LIG111      0.2095
      8 C           0.3350   -0.5723    0.1077 C.2     1  LIG111      0.0922
      9 N           1.3639   -1.5227    0.2010 N.pl3   1  LIG111     -0.3103
     10 C          -0.9835   -0.8899    0.1489 C.2     1  LIG111      0.0708
     11 C          -2.2034   -0.0867    0.0742 C.ar    1  LIG111      0.0103
     12 C          -3.3252   -0.9981    0.1609 C.ar    1  LIG111      0.0426
     13 C          -2.4567    1.2662   -0.0506 C.ar    1  LIG111     -0.0511
     14 C          -3.7848    1.7198   -0.0921 C.ar    1  LIG111     -0.0479
     15 C          -4.8525    0.8350   -0.0099 C.ar    1  LIG111      0.0152
     16 C          -4.6386   -0.5436    0.1189 C.ar    1  LIG111     -0.0267
     17 C          -1.4551   -2.3216    0.2894 C.2     1  LIG111      0.2508
     18 N          -2.8601   -2.3174    0.2860 N.am    1  LIG111     -0.2809
     19 O           0.4459    1.8866   -0.1492 O.2     1  LIG111     -0.2852
     20 O          -0.7760   -3.3557    0.3923 O.2     1  LIG111     -0.2698
     21 I          -6.7507    1.5295   -0.0749 I       1  LIG111     -0.0438
     22 H           3.4247    2.4322   -0.2479 H       1  LIG111      0.0625
     23 H           5.7151    1.4161   -0.1694 H       1  LIG111      0.0618
     24 H           6.0023   -1.0349    0.0884 H       1  LIG111      0.0618
     25 H           4.0343   -2.5524    0.2759 H       1  LIG111      0.0636
     26 H           1.2102   -2.4989    0.2971 H       1  LIG111      0.1523
     27 H          -1.6407    2.0026   -0.1188 H       1  LIG111      0.0625
     28 H          -3.9637    2.8022   -0.1926 H       1  LIG111      0.0628
     29 H          -5.4820   -1.2459    0.1849 H       1  LIG111      0.0647
     30 H          -3.4354   -3.1137    0.3693 H       1  LIG111      0.1552
@<TRIPOS>BOND
     1    22     1    1
     2    28    14    1
     3    23     2    1
     4    19     7    2
     5     1     2   ar
     6     1     5   ar
     7    27    13    1
     8    14    13   ar
     9    14    15   ar
    10     2     3   ar
    11    21    15    1
    12    13    11   ar
    13     7     5    1
    14     7     8    1
    15     5     6   ar
    16    15    16   ar
    17     3    24    1
    18     3     4   ar
    19    11    10    1
    20    11    12   ar
    21     8    10    2
    22     8     9    1
    23     6     4   ar
    24     6     9    1
    25    16    12   ar
    26    16    29    1
    27    10    17    1
    28    12    18    1
    29     4    25    1
    30     9    26    1
    31    18    17   am
    32    18    30    1
    33    17    20    2
