@<TRIPOS>MOLECULE
15
 33 36 0 0 0
SMALL
GASTEIGER

@<TRIPOS>ATOM
      1 C           3.5516    1.3451   -0.1312 C.ar    1  LIG111     -0.0491
      2 C           4.8280    0.7704   -0.0903 C.ar    1  LIG111     -0.0610
      3 C           4.9869   -0.6077    0.0517 C.ar    1  LIG111     -0.0600
      4 C           3.8908   -1.4702    0.1580 C.ar    1  LIG111     -0.0398
      5 C           2.4508    0.5149   -0.0285 C.ar    1  LIG111      0.0447
      6 C           2.6162   -0.9035    0.1167 C.ar    1  LIG111      0.0424
      7 C           1.0015    0.8002   -0.0393 C.2     1  LIG111      0.2095
      8 C           0.3347   -0.5719    0.1090 C.2     1  LIG111      0.0922
      9 N           1.3641   -1.5230    0.2000 N.pl3   1  LIG111     -0.3103
     10 C          -0.9835   -0.8901    0.1503 C.2     1  LIG111      0.0708
     11 C          -2.2048   -0.0885    0.0748 C.ar    1  LIG111      0.0105
     12 C          -3.3248   -1.0012    0.1615 C.ar    1  LIG111      0.0427
     13 C          -2.4587    1.2614   -0.0512 C.ar    1  LIG111     -0.0481
     14 C          -3.7872    1.7353   -0.0960 C.ar    1  LIG111     -0.0358
     15 C          -4.8535    0.8361   -0.0127 C.ar    1  LIG111      0.0226
     16 C          -4.6346   -0.5455    0.1180 C.ar    1  LIG111     -0.0256
     17 C          -1.4541   -2.3227    0.2906 C.2     1  LIG111      0.2508
     18 N          -2.8586   -2.3204    0.2879 N.am    1  LIG111     -0.2809
     19 O           0.4466    1.8875   -0.1437 O.2     1  LIG111     -0.2852
     20 O          -0.7740   -3.3560    0.3939 O.2     1  LIG111     -0.2698
     21 C          -4.0095    3.1950   -0.2326 C.3     1  LIG111     -0.0386
     22 BR         -6.6374    1.4201   -0.0695 Br      1  LIG111     -0.0500
     23 H           3.4232    2.4325   -0.2429 H       1  LIG111      0.0625
     24 H           5.7145    1.4162   -0.1713 H       1  LIG111      0.0618
     25 H           6.0018   -1.0357    0.0813 H       1  LIG111      0.0618
     26 H           4.0343   -2.5532    0.2688 H       1  LIG111      0.0636
     27 H           1.2100   -2.4994    0.2934 H       1  LIG111      0.1523
     28 H          -1.6375    1.9932   -0.1189 H       1  LIG111      0.0627
     29 H          -5.4801   -1.2457    0.1835 H       1  LIG111      0.0647
     30 H          -3.4332   -3.1173    0.3684 H       1  LIG111      0.1552
     31 H          -3.0392    3.7477   -0.2869 H       1  LIG111      0.0278
     32 H          -4.5907    3.4167   -1.1631 H       1  LIG111      0.0278
     33 H          -4.5860    3.5861    0.6434 H       1  LIG111      0.0278
@<TRIPOS>BOND
     1    32    21    1
     2    31    21    1
     3    23     1    1
     4    21    14    1
     5    21    33    1
     6    24     2    1
     7    19     7    2
     8     1     2   ar
     9     1     5   ar
    10    28    13    1
    11    14    13   ar
    12    14    15   ar
    13     2     3   ar
    14    22    15    1
    15    13    11   ar
    16     7     5    1
    17     7     8    1
    18     5     6   ar
    19    15    16   ar
    20     3    25    1
    21     3     4   ar
    22    11    10    1
    23    11    12   ar
    24     8    10    2
    25     8     9    1
    26     6     4   ar
    27     6     9    1
    28    16    12   ar
    29    16    29    1
    30    10    17    1
    31     4    26    1
    32    12    18    1
    33     9    27    1
    34    18    17   am
    35    18    30    1
    36    17    20    2
