@<TRIPOS>MOLECULE
16
 32 35 0 0 0
SMALL
GASTEIGER

@<TRIPOS>ATOM
      1 O           1.2533    3.1430    0.1747 O.2     1  LIG111     -0.4087
      2 N           0.4488    1.9944    0.2216 N.2     1  LIG111     -0.0851
      3 C           1.0628    0.8454    0.1726 C.2     1  LIG111      0.1331
      4 C           0.3552   -0.5235    0.2009 C.2     1  LIG111      0.0738
      5 C          -0.9923   -0.7982    0.2441 C.2     1  LIG111      0.0692
      6 C          -2.2613   -0.0288    0.1091 C.ar    1  LIG111      0.0102
      7 C          -2.6151    1.3376   -0.0544 C.ar    1  LIG111     -0.0520
      8 C          -4.0006    1.7031   -0.1817 C.ar    1  LIG111     -0.0611
      9 C          -5.0273    0.7082   -0.1466 C.ar    1  LIG111     -0.0600
     10 C          -4.6829   -0.6566    0.0198 C.ar    1  LIG111     -0.0399
     11 C          -3.3081   -0.9925    0.1443 C.ar    1  LIG111      0.0416
     12 N          -2.7998   -2.2794    0.3020 N.am    1  LIG111     -0.2809
     13 C          -1.4142   -2.2713    0.3792 C.2     1  LIG111      0.2508
     14 O          -0.6973   -3.2525    0.5068 O.2     1  LIG111     -0.2698
     15 N           1.3675   -1.4664    0.1154 N.pl3   1  LIG111     -0.3116
     16 C           2.6138   -0.8916    0.0395 C.ar    1  LIG111      0.0408
     17 C           3.8580   -1.5468   -0.0584 C.ar    1  LIG111     -0.0399
     18 C           5.0488   -0.7529   -0.1214 C.ar    1  LIG111     -0.0600
     19 C           4.9656    0.6764   -0.0863 C.ar    1  LIG111     -0.0610
     20 C           3.6939    1.3260    0.0079 C.ar    1  LIG111     -0.0506
     21 C           2.5243    0.5266    0.0705 C.ar    1  LIG111      0.0265
     22 H           0.7036    3.9167    0.2170 H       1  LIG111      0.3278
     23 H          -1.8454    2.1003   -0.0831 H       1  LIG111      0.0624
     24 H          -4.2698    2.7458   -0.3059 H       1  LIG111      0.0618
     25 H          -6.0672    0.9973   -0.2470 H       1  LIG111      0.0618
     26 H          -5.4481   -1.4237    0.0512 H       1  LIG111      0.0636
     27 H          -3.1010   -2.8819   -0.5423 H       1  LIG111      0.1552
     28 H           1.2082   -2.0672   -0.7678 H       1  LIG111      0.1522
     29 H           3.9127   -2.6291   -0.0854 H       1  LIG111      0.0636
     30 H           6.0164   -1.2358   -0.1959 H       1  LIG111      0.0618
     31 H           5.8715    1.2699   -0.1315 H       1  LIG111      0.0618
     32 H           3.6260    2.4077    0.0310 H       1  LIG111      0.0625
@<TRIPOS>BOND
     1    28    15    1
     2    27    12    1
     3    24     8    1
     4    25     9    1
     5    30    18    1
     6     8     9   ar
     7     8     7   ar
     8     9    10   ar
     9    31    19    1
    10    18    19   ar
    11    18    17   ar
    12    19    20   ar
    13    29    17    1
    14    23     7    1
    15    17    16   ar
    16     7     6   ar
    17    20    32    1
    18    20    21   ar
    19    10    26    1
    20    10    11   ar
    21    16    21   ar
    22    16    15    1
    23    21     3    1
    24     6    11   ar
    25     6     5    1
    26    15     4    1
    27    11    12    1
    28     3     4    1
    29     3     2    2
    30     1    22    1
    31     1     2    1
    32     4     5    2
    33     5    13    1
    34    12    13   am
    35    13    14    2
