@<TRIPOS>MOLECULE
19
 32 35 0 0 0
SMALL
GASTEIGER

@<TRIPOS>ATOM
      1 C           3.5739    1.2930   -0.3429 C.ar    1  LIG111     -0.0506
      2 C           4.8457    0.7221   -0.1926 C.ar    1  LIG111     -0.0610
      3 C           4.9928   -0.6201    0.1489 C.ar    1  LIG111     -0.0600
      4 C           3.8861   -1.4518    0.3586 C.ar    1  LIG111     -0.0399
      5 C           2.4658    0.4923   -0.1442 C.ar    1  LIG111      0.0265
      6 C           2.6196   -0.8887    0.2143 C.ar    1  LIG111      0.0408
      7 C           1.0166    0.7672   -0.2312 C.2     1  LIG111      0.1331
      8 C           0.3383   -0.5403    0.1278 C.2     1  LIG111      0.0738
      9 N           1.3559   -1.4690    0.4003 N.pl3   1  LIG111     -0.3116
     10 C          -0.9855   -0.8584    0.1721 C.2     1  LIG111      0.0692
     11 C          -2.2141   -0.0687    0.1107 C.ar    1  LIG111      0.0103
     12 C          -3.3216   -1.0035    0.0544 C.ar    1  LIG111      0.0430
     13 C          -2.5007    1.2825    0.1715 C.ar    1  LIG111     -0.0507
     14 C          -3.8316    1.7203    0.1043 C.ar    1  LIG111     -0.0427
     15 C          -4.8769    0.8066   -0.0015 C.ar    1  LIG111      0.0428
     16 C          -4.6428   -0.5773   -0.0155 C.ar    1  LIG111     -0.0215
     17 C          -1.4376   -2.2968    0.2477 C.2     1  LIG111      0.2508
     18 N          -2.8374   -2.3196    0.1053 N.am    1  LIG111     -0.2808
     19 N           0.3705    1.8371   -0.6065 N.2     1  LIG111     -0.0851
     20 O          -0.7555   -3.3272    0.3753 O.2     1  LIG111     -0.2698
     21 O           1.0914    2.8802   -0.9345 O.2     1  LIG111     -0.4087
     22 CL         -6.4805    1.3668   -0.0986 Cl      1  LIG111     -0.0835
     23 H           3.4588    2.3527   -0.6178 H       1  LIG111      0.0625
     24 H           5.7374    1.3467   -0.3488 H       1  LIG111      0.0618
     25 H           6.0030   -1.0450    0.2591 H       1  LIG111      0.0618
     26 H           4.0185   -2.5076    0.6292 H       1  LIG111      0.0636
     27 H           1.1899   -2.4447    0.4966 H       1  LIG111      0.1522
     28 H          -1.7149    2.0393    0.2943 H       1  LIG111      0.0625
     29 H          -4.0426    2.7997    0.1411 H       1  LIG111      0.0632
     30 H          -5.4762   -1.2907   -0.0751 H       1  LIG111      0.0651
     31 H          -3.4036   -3.1242    0.1698 H       1  LIG111      0.1552
     32 H           0.4342    3.5547   -1.2085 H       1  LIG111      0.3278
@<TRIPOS>BOND
     1    32    21    1
     2    21    19    1
     3    23     1    1
     4    19     7    2
     5    24     2    1
     6     1     2   ar
     7     1     5   ar
     8     7     5    1
     9     7     8    1
    10     2     3   ar
    11     5     6   ar
    12    22    15    1
    13    30    16    1
    14    16    15   ar
    15    16    12   ar
    16    15    14   ar
    17    12    18    1
    18    12    11   ar
    19    14    29    1
    20    14    13   ar
    21    18    31    1
    22    18    17   am
    23    11    13   ar
    24    11    10    1
    25     8    10    2
    26     8     9    1
    27     3    25    1
    28     3     4   ar
    29    13    28    1
    30    10    17    1
    31     6     4   ar
    32     6     9    1
    33    17    20    2
    34     4    26    1
    35     9    27    1
