@<TRIPOS>MOLECULE
20
 32 35 0 0 0
SMALL
GASTEIGER

@<TRIPOS>ATOM
      1 C           3.5754    1.2933   -0.3393 C.ar    1  LIG111     -0.0506
      2 C           4.8473    0.7216   -0.1916 C.ar    1  LIG111     -0.0610
      3 C           4.9935   -0.6223    0.1441 C.ar    1  LIG111     -0.0600
      4 C           3.8869   -1.4545    0.3516 C.ar    1  LIG111     -0.0399
      5 C           2.4671    0.4921   -0.1428 C.ar    1  LIG111      0.0265
      6 C           2.6207   -0.8898    0.2114 C.ar    1  LIG111      0.0408
      7 C           1.0181    0.7696   -0.2229 C.2     1  LIG111      0.1331
      8 C           0.3394   -0.5396    0.1300 C.2     1  LIG111      0.0738
      9 N           1.3565   -1.4690    0.4019 N.pl3   1  LIG111     -0.3116
     10 C          -0.9849   -0.8574    0.1741 C.2     1  LIG111      0.0692
     11 C          -2.2135   -0.0678    0.1117 C.ar    1  LIG111      0.0102
     12 C          -3.3208   -1.0022    0.0542 C.ar    1  LIG111      0.0427
     13 C          -2.5032    1.2826    0.1687 C.ar    1  LIG111     -0.0510
     14 C          -3.8363    1.7152    0.0997 C.ar    1  LIG111     -0.0471
     15 C          -4.8851    0.8066   -0.0037 C.ar    1  LIG111      0.0197
     16 C          -4.6418   -0.5752   -0.0137 C.ar    1  LIG111     -0.0259
     17 C          -1.4373   -2.2958    0.2492 C.2     1  LIG111      0.2508
     18 N          -2.8365   -2.3191    0.1018 N.am    1  LIG111     -0.2809
     19 N           0.3722    1.8463   -0.5783 N.2     1  LIG111     -0.0851
     20 O          -0.7546   -3.3256    0.3788 O.2     1  LIG111     -0.2698
     21 O           1.0940    2.8904   -0.9002 O.2     1  LIG111     -0.4087
     22 BR         -6.6521    1.4218   -0.1144 Br      1  LIG111     -0.0502
     23 H           3.4602    2.3548   -0.6074 H       1  LIG111      0.0625
     24 H           5.7393    1.3460   -0.3458 H       1  LIG111      0.0618
     25 H           6.0037   -1.0478    0.2513 H       1  LIG111      0.0618
     26 H           4.0183   -2.5117    0.6174 H       1  LIG111      0.0636
     27 H           1.1914   -2.4468    0.4790 H       1  LIG111      0.1522
     28 H          -1.7211    2.0434    0.2910 H       1  LIG111      0.0625
     29 H          -4.0400    2.7970    0.1319 H       1  LIG111      0.0629
     30 H          -5.4698   -1.2965   -0.0676 H       1  LIG111      0.0647
     31 H          -3.4029   -3.1219    0.1857 H       1  LIG111      0.1552
     32 H           0.4374    3.5719   -1.1575 H       1  LIG111      0.3278
@<TRIPOS>BOND
     1    32    21    1
     2    21    19    1
     3    23     1    1
     4    19     7    2
     5    24     2    1
     6     1     2   ar
     7     1     5   ar
     8     7     5    1
     9     7     8    1
    10     2     3   ar
    11     5     6   ar
    12    22    15    1
    13    30    16    1
    14    16    15   ar
    15    16    12   ar
    16    15    14   ar
    17    12    18    1
    18    12    11   ar
    19    14    29    1
    20    14    13   ar
    21    18    31    1
    22    18    17   am
    23    11    13   ar
    24    11    10    1
    25     8    10    2
    26     8     9    1
    27     3    25    1
    28     3     4   ar
    29    13    28    1
    30    10    17    1
    31     6     4   ar
    32     6     9    1
    33    17    20    2
    34     4    26    1
    35     9    27    1
