@<TRIPOS>MOLECULE
21
 32 35 0 0 0
SMALL
GASTEIGER

@<TRIPOS>ATOM
      1 C           3.5744    1.2925   -0.3443 C.ar    1  LIG111     -0.0506
      2 C           4.8466    0.7210   -0.1984 C.ar    1  LIG111     -0.0610
      3 C           4.9939   -0.6216    0.1419 C.ar    1  LIG111     -0.0600
      4 C           2.4666    0.4923   -0.1407 C.ar    1  LIG111      0.0265
      5 C           2.6208   -0.8886    0.2175 C.ar    1  LIG111      0.0408
      6 C           3.8874   -1.4526    0.3560 C.ar    1  LIG111     -0.0399
      7 C           1.0173    0.7676   -0.2255 C.2     1  LIG111      0.1331
      8 C           0.3392   -0.5404    0.1328 C.2     1  LIG111      0.0738
      9 C          -0.9851   -0.8583    0.1764 C.2     1  LIG111      0.0692
     10 C          -1.4377   -2.2968    0.2475 C.2     1  LIG111      0.2508
     11 C          -2.2132   -0.0681    0.1135 C.ar    1  LIG111      0.0102
     12 C          -3.3210   -1.0021    0.0530 C.ar    1  LIG111      0.0426
     13 C          -2.5022    1.2823    0.1727 C.ar    1  LIG111     -0.0511
     14 C          -3.8366    1.7132    0.1019 C.ar    1  LIG111     -0.0479
     15 C          -4.8840    0.8075   -0.0056 C.ar    1  LIG111      0.0152
     16 C          -4.6412   -0.5716   -0.0186 C.ar    1  LIG111     -0.0267
     17 N           1.3567   -1.4680    0.4081 N.pl3   1  LIG111     -0.3116
     18 N          -2.8366   -2.3191    0.1016 N.am    1  LIG111     -0.2809
     19 O          -0.7545   -3.3267    0.3735 O.2     1  LIG111     -0.2698
     20 N           0.3711    1.8397   -0.5938 N.2     1  LIG111     -0.0851
     21 O           1.0912    2.8827   -0.9222 O.2     1  LIG111     -0.4087
     22 I          -6.7898    1.4721   -0.1252 I       1  LIG111     -0.0438
     23 H           3.4575    2.3523   -0.6182 H       1  LIG111      0.0625
     24 H           5.7380    1.3451   -0.3577 H       1  LIG111      0.0618
     25 H           6.0041   -1.0475    0.2476 H       1  LIG111      0.0618
     26 H           4.0203   -2.5088    0.6252 H       1  LIG111      0.0636
     27 H          -1.7201    2.0425    0.2981 H       1  LIG111      0.0625
     28 H          -4.0386    2.7954    0.1371 H       1  LIG111      0.0628
     29 H          -5.4683   -1.2936   -0.0786 H       1  LIG111      0.0647
     30 H           1.1911   -2.4450    0.4928 H       1  LIG111      0.1522
     31 H          -3.4029   -3.1232    0.1696 H       1  LIG111      0.1552
     32 H           0.4334    3.5585   -1.1917 H       1  LIG111      0.3278
@<TRIPOS>BOND
     1    32    21    1
     2    21    20    1
     3    23     1    1
     4    20     7    2
     5    24     2    1
     6     1     2   ar
     7     1     4   ar
     8     7     4    1
     9     7     8    1
    10     2     3   ar
    11     4     5   ar
    12    22    15    1
    13    29    16    1
    14    16    15   ar
    15    16    12   ar
    16    15    14   ar
    17    12    18    1
    18    12    11   ar
    19    18    31    1
    20    18    10   am
    21    14    28    1
    22    14    13   ar
    23    11    13   ar
    24    11     9    1
    25     8     9    2
    26     8    17    1
    27     3    25    1
    28     3     6   ar
    29    13    27    1
    30     9    10    1
    31     5     6   ar
    32     5    17    1
    33    10    19    2
    34     6    26    1
    35    17    30    1
