@<TRIPOS>MOLECULE
27
 35 38 0 0 0
SMALL
GASTEIGER

@<TRIPOS>ATOM
      1 C           3.5948    1.3226   -0.1468 C.ar    1  LIG111     -0.0506
      2 C           4.8618    0.7257   -0.0806 C.ar    1  LIG111     -0.0610
      3 C           4.9983   -0.6507    0.0827 C.ar    1  LIG111     -0.0600
      4 C           3.8850   -1.4930    0.1875 C.ar    1  LIG111     -0.0399
      5 C           2.4799    0.5131   -0.0452 C.ar    1  LIG111      0.0265
      6 C           2.6234   -0.9042    0.1231 C.ar    1  LIG111      0.0408
      7 C           1.0323    0.8090   -0.0751 C.2     1  LIG111      0.1333
      8 C           0.3413   -0.5319    0.0935 C.2     1  LIG111      0.0738
      9 C          -0.9849   -0.8481    0.1404 C.2     1  LIG111      0.0692
     10 C          -2.2195   -0.0648    0.0740 C.ar    1  LIG111      0.0102
     11 C          -3.3263   -0.9995    0.1544 C.ar    1  LIG111      0.0427
     12 C          -2.5193    1.2807   -0.0314 C.ar    1  LIG111     -0.0510
     13 C          -3.8572    1.7028   -0.0677 C.ar    1  LIG111     -0.0471
     14 C          -4.9052    0.7910    0.0032 C.ar    1  LIG111      0.0197
     15 C          -4.6521   -0.5840    0.1179 C.ar    1  LIG111     -0.0259
     16 C          -1.4322   -2.2848    0.2786 C.2     1  LIG111      0.2508
     17 N          -2.8371   -2.3086    0.2725 N.am    1  LIG111     -0.2809
     18 N           1.3557   -1.4953    0.2016 N.pl3   1  LIG111     -0.3116
     19 O          -0.7479   -3.3175    0.3808 O.2     1  LIG111     -0.2698
     20 N           0.3948    1.9366   -0.2191 N.2     1  LIG111     -0.0829
     21 O           1.1340    3.0175   -0.3618 O.2     1  LIG111     -0.3966
     22 C           0.3595    4.2313   -0.5248 C.3     1  LIG111      0.1072
     23 BR         -6.6801    1.3910   -0.0515 Br      1  LIG111     -0.0502
     24 H           3.4884    2.4103   -0.2776 H       1  LIG111      0.0625
     25 H           5.7585    1.3575   -0.1597 H       1  LIG111      0.0618
     26 H           6.0048   -1.0951    0.1316 H       1  LIG111      0.0618
     27 H           4.0081   -2.5764    0.3156 H       1  LIG111      0.0636
     28 H          -1.7403    2.0537   -0.0862 H       1  LIG111      0.0625
     29 H          -4.0650    2.7809   -0.1539 H       1  LIG111      0.0629
     30 H          -5.4762   -1.3093    0.1777 H       1  LIG111      0.0647
     31 H          -3.3960   -3.1170    0.3465 H       1  LIG111      0.1552
     32 H           1.1854   -2.4682    0.3109 H       1  LIG111      0.1522
     33 H           1.1610    5.0037   -0.6319 H       1  LIG111      0.0687
     34 H          -0.2721    4.1755   -1.4424 H       1  LIG111      0.0687
     35 H          -0.2667    4.4216    0.3785 H       1  LIG111      0.0687
@<TRIPOS>BOND
     1    34    22    1
     2    33    22    1
     3    22    21    1
     4    22    35    1
     5    21    20    1
     6    24     1    1
     7    20     7    2
     8    25     2    1
     9    29    13    1
    10     1     2   ar
    11     1     5   ar
    12    28    12    1
    13     2     3   ar
    14     7     5    1
    15     7     8    1
    16    13    12   ar
    17    13    14   ar
    18    23    14    1
    19     5     6   ar
    20    12    10   ar
    21    14    15   ar
    22    10     9    1
    23    10    11   ar
    24     3    26    1
    25     3     4   ar
    26     8     9    2
    27     8    18    1
    28    15    11   ar
    29    15    30    1
    30     6     4   ar
    31     6    18    1
    32     9    16    1
    33    11    17    1
    34     4    27    1
    35    18    32    1
    36    17    16   am
    37    17    31    1
    38    16    19    2
