@<TRIPOS>MOLECULE
31
 37 40 0 0 0
SMALL
GASTEIGER

@<TRIPOS>ATOM
      1 C           3.5935    1.3245   -0.1246 C.ar    1  LIG111     -0.0506
      2 C           4.8606    0.7283   -0.0763 C.ar    1  LIG111     -0.0610
      3 C           4.9980   -0.6514    0.0654 C.ar    1  LIG111     -0.0600
      4 C           2.4783    0.5138   -0.0295 C.ar    1  LIG111      0.0265
      5 C           2.6222   -0.9067    0.1158 C.ar    1  LIG111      0.0408
      6 C           3.8862   -1.4947    0.1639 C.ar    1  LIG111     -0.0399
      7 C           1.0314    0.8103   -0.0456 C.2     1  LIG111      0.1340
      8 C           0.3401   -0.5345    0.0974 C.2     1  LIG111      0.0738
      9 C          -0.9848   -0.8463    0.1383 C.2     1  LIG111      0.0692
     10 C          -1.4335   -2.2854    0.2818 C.2     1  LIG111      0.2508
     11 C          -2.2207   -0.0625    0.0693 C.ar    1  LIG111      0.0103
     12 C          -3.3257   -0.9977    0.1647 C.ar    1  LIG111      0.0430
     13 C          -2.5194    1.2826   -0.0574 C.ar    1  LIG111     -0.0507
     14 C          -3.8575    1.7054   -0.0913 C.ar    1  LIG111     -0.0427
     15 C          -4.8998    0.7885    0.0010 C.ar    1  LIG111      0.0428
     16 C          -4.6527   -0.5871    0.1315 C.ar    1  LIG111     -0.0215
     17 N           1.3582   -1.5005    0.1896 N.pl3   1  LIG111     -0.3116
     18 N          -2.8365   -2.3072    0.2892 N.am    1  LIG111     -0.2808
     19 N           0.3806    1.9336   -0.1533 N.2     1  LIG111     -0.0724
     20 O           1.1213    3.0272   -0.2719 O.3     1  LIG111     -0.3170
     21 C           0.4698    4.2700   -0.3911 C.2     1  LIG111      0.3327
     22 C           1.4929    5.3461   -0.5090 C.3     1  LIG111      0.0356
     23 O          -0.7500    4.3498   -0.3879 O.2     1  LIG111     -0.2486
     24 O          -0.7470   -3.3168    0.3801 O.2     1  LIG111     -0.2698
     25 CL         -6.5122    1.3297   -0.0437 Cl      1  LIG111     -0.0835
     26 H           3.4859    2.4138   -0.2370 H       1  LIG111      0.0625
     27 H           5.7571    1.3606   -0.1513 H       1  LIG111      0.0618
     28 H           6.0052   -1.0955    0.1011 H       1  LIG111      0.0618
     29 H           4.0102   -2.5802    0.2747 H       1  LIG111      0.0636
     30 H          -1.7468    2.0640   -0.1353 H       1  LIG111      0.0625
     31 H          -4.0705    2.7810   -0.1930 H       1  LIG111      0.0632
     32 H          -5.4804   -1.3058    0.2041 H       1  LIG111      0.0651
     33 H           1.1875   -2.4742    0.2881 H       1  LIG111      0.1522
     34 H          -3.3957   -3.1148    0.3707 H       1  LIG111      0.1552
     35 H           0.9744    6.3314   -0.6041 H       1  LIG111      0.0342
     36 H           2.1450    5.3493    0.3987 H       1  LIG111      0.0342
     37 H           2.1294    5.1664   -1.4098 H       1  LIG111      0.0342
@<TRIPOS>BOND
     1    37    22    1
     2    35    22    1
     3    22    21    1
     4    22    36    1
     5    21    23    2
     6    21    20    1
     7    20    19    1
     8    26     1    1
     9    31    14    1
    10    19     7    2
    11    27     2    1
    12    30    13    1
    13     1     2   ar
    14     1     4   ar
    15    14    13   ar
    16    14    15   ar
    17     2     3   ar
    18    13    11   ar
    19     7     4    1
    20     7     8    1
    21    25    15    1
    22     4     5   ar
    23    15    16   ar
    24     3    28    1
    25     3     6   ar
    26    11     9    1
    27    11    12   ar
    28     8     9    2
    29     8    17    1
    30     5     6   ar
    31     5    17    1
    32    16    12   ar
    33    16    32    1
    34     9    10    1
    35     6    29    1
    36    12    18    1
    37    17    33    1
    38    10    18   am
    39    10    24    2
    40    18    34    1
