@<TRIPOS>MOLECULE
30
 35 38 0 0 0
SMALL
GASTEIGER
Energy = 0

@<TRIPOS>ATOM
      1 C           3.5739    1.2881   -0.3592 C.ar    1  LIG11      -0.0506
      2 C           4.8460    0.7179   -0.2083 C.ar    1  LIG11      -0.0610
      3 C           4.9932   -0.6206    0.1477 C.ar    1  LIG11      -0.0600
      4 C           2.4663    0.4904   -0.1462 C.ar    1  LIG11       0.0265
      5 C           2.6198   -0.8873    0.2236 C.ar    1  LIG11       0.0408
      6 C           3.8865   -1.4492    0.3700 C.ar    1  LIG11      -0.0399
      7 C           1.0171    0.7667   -0.2283 C.2     1  LIG11       0.1331
      8 C           0.3389   -0.5387    0.1366 C.2     1  LIG11       0.0738
      9 C          -0.9848   -0.8585    0.1708 C.2     1  LIG11       0.0692
     10 C          -1.4362   -2.2979    0.2423 C.2     1  LIG11       0.2508
     11 C          -2.2145   -0.0702    0.1091 C.ar    1  LIG11       0.0105
     12 C          -3.3198   -1.0056    0.0481 C.ar    1  LIG11       0.0427
     13 C          -2.5041    1.2772    0.1756 C.ar    1  LIG11      -0.0481
     14 C          -3.8393    1.7287    0.1117 C.ar    1  LIG11      -0.0358
     15 C          -4.8850    0.8086    0.0010 C.ar    1  LIG11       0.0226
     16 C          -4.6368   -0.5731   -0.0174 C.ar    1  LIG11      -0.0256
     17 N           1.3559   -1.4639    0.4293 N.pl3   1  LIG11      -0.3116
     18 N          -2.8344   -2.3230    0.0877 N.am    1  LIG11      -0.2809
     19 O          -0.7518   -3.3269    0.3691 O.2     1  LIG11      -0.2698
     20 N           0.3715    1.8383   -0.5992 N.2     1  LIG11      -0.0851
     21 O           1.0930    2.8787   -0.9341 O.2     1  LIG11      -0.4087
     22 C          -4.0947    3.1884    0.1686 C.3     1  LIG11      -0.0386
     23 BR         -6.6754    1.3642   -0.1115 Br      1  LIG11      -0.0500
     24 H           3.4577    2.3455   -0.6426 H       1  LIG11       0.0625
     25 H           5.7377    1.3400   -0.3740 H       1  LIG11       0.0618
     26 H           6.0033   -1.0446    0.2608 H       1  LIG11       0.0618
     27 H           4.0190   -2.5021    0.6519 H       1  LIG11       0.0636
     28 H          -1.7147    2.0307    0.3033 H       1  LIG11       0.0627
     29 H          -5.4659   -1.2933   -0.0781 H       1  LIG11       0.0647
     30 H           1.1924   -2.4443    0.4782 H       1  LIG11       0.1522
     31 H          -3.4016   -3.1239    0.1841 H       1  LIG11       0.1552
     32 H           0.4355    3.5579   -1.1951 H       1  LIG11       0.3278
     33 H          -3.1416    3.7607    0.2867 H       1  LIG11       0.0278
     34 H          -4.5954    3.5341   -0.7707 H       1  LIG11       0.0278
     35 H          -4.7595    3.4375    1.0336 H       1  LIG11       0.0278
@<TRIPOS>BOND
     1    32    21    1
     2    21    20    1
     3    34    22    1
     4    24     1    1
     5    20     7    2
     6    25     2    1
     7     1     2   ar
     8     1     4   ar
     9     7     4    1
    10     7     8    1
    11     2     3   ar
    12     4     5   ar
    13    23    15    1
    14    29    16    1
    15    16    15   ar
    16    16    12   ar
    17    15    14   ar
    18    12    18    1
    19    12    11   ar
    20    18    31    1
    21    18    10   am
    22    11     9    1
    23    11    13   ar
    24    14    22    1
    25    14    13   ar
    26     8     9    2
    27     8    17    1
    28     3    26    1
    29     3     6   ar
    30    22    33    1
    31    22    35    1
    32     9    10    1
    33    13    28    1
    34     5     6   ar
    35     5    17    1
    36    10    19    2
    37     6    27    1
    38    17    30    1
