@<TRIPOS>MOLECULE
41
 40 43 0 0 0
SMALL
GASTEIGER
Energy = 0

@<TRIPOS>ATOM
      1 C           3.5909    1.3267   -0.1175 C.ar    1  LIG11      -0.0506
      2 C           4.8588    0.7321   -0.0725 C.ar    1  LIG11      -0.0610
      3 C           4.9980   -0.6480    0.0623 C.ar    1  LIG11      -0.0600
      4 C           2.4768    0.5140   -0.0258 C.ar    1  LIG11       0.0265
      5 C           2.6227   -0.9071    0.1118 C.ar    1  LIG11       0.0408
      6 C           3.8876   -1.4937    0.1567 C.ar    1  LIG11      -0.0399
      7 C           1.0298    0.8087   -0.0409 C.2     1  LIG11       0.1340
      8 C           0.3402   -0.5380    0.0970 C.2     1  LIG11       0.0738
      9 C          -0.9843   -0.8506    0.1385 C.2     1  LIG11       0.0692
     10 C          -1.4344   -2.2895    0.2840 C.2     1  LIG11       0.2508
     11 C          -2.2200   -0.0662    0.0689 C.ar    1  LIG11       0.0105
     12 C          -3.3252   -0.9996    0.1688 C.ar    1  LIG11       0.0427
     13 C          -2.5176    1.2748   -0.0635 C.ar    1  LIG11      -0.0481
     14 C          -3.8591    1.7161   -0.0994 C.ar    1  LIG11      -0.0358
     15 C          -4.9034    0.7952   -0.0006 C.ar    1  LIG11       0.0226
     16 C          -4.6464   -0.5789    0.1350 C.ar    1  LIG11      -0.0256
     17 N           1.3595   -1.5031    0.1827 N.pl3   1  LIG11      -0.3116
     18 N          -2.8367   -2.3101    0.2959 N.am    1  LIG11      -0.2809
     19 N           0.3758    1.9303   -0.1446 N.2     1  LIG11      -0.0724
     20 O           1.1111    3.0281   -0.2585 O.3     1  LIG11      -0.3170
     21 C           0.4523    4.2664   -0.3802 C.2     1  LIG11       0.3327
     22 C           1.4685    5.3502   -0.4872 C.3     1  LIG11       0.0356
     23 O          -0.7683    4.3390   -0.3872 O.2     1  LIG11      -0.2486
     24 O          -0.7463   -3.3201    0.3818 O.2     1  LIG11      -0.2698
     25 C          -4.1112    3.1705   -0.2437 C.3     1  LIG11      -0.0386
     26 BR         -6.7019    1.3348   -0.0429 Br      1  LIG11      -0.0500
     27 H           3.4813    2.4165   -0.2233 H       1  LIG11       0.0625
     28 H           5.7542    1.3662   -0.1442 H       1  LIG11       0.0618
     29 H           6.0056   -1.0912    0.0961 H       1  LIG11       0.0618
     30 H           4.0131   -2.5794    0.2624 H       1  LIG11       0.0636
     31 H          -1.7377    2.0492   -0.1465 H       1  LIG11       0.0627
     32 H          -5.4720   -1.3013    0.2119 H       1  LIG11       0.0647
     33 H           1.1896   -2.4772    0.2791 H       1  LIG11       0.1522
     34 H          -3.3961   -3.1171    0.3795 H       1  LIG11       0.1552
     35 H           0.9442    6.3318   -0.5874 H       1  LIG11       0.0342
     36 H           2.1111    5.3574    0.4272 H       1  LIG11       0.0342
     37 H           2.1157    5.1753   -1.3814 H       1  LIG11       0.0342
     38 H          -3.1501    3.7417   -0.3112 H       1  LIG11       0.0278
     39 H          -4.7049    3.3736   -1.1703 H       1  LIG11       0.0278
     40 H          -4.6872    3.5560    0.6347 H       1  LIG11       0.0278
@<TRIPOS>BOND
     1    37    22    1
     2    39    25    1
     3    35    22    1
     4    22    21    1
     5    22    36    1
     6    23    21    2
     7    21    20    1
     8    38    25    1
     9    20    19    1
    10    25    14    1
    11    25    40    1
    12    27     1    1
    13    31    13    1
    14    19     7    2
    15    28     2    1
    16     1     2   ar
    17     1     4   ar
    18    14    13   ar
    19    14    15   ar
    20     2     3   ar
    21    13    11   ar
    22    26    15    1
    23     7     4    1
    24     7     8    1
    25     4     5   ar
    26    15    16   ar
    27     3    29    1
    28     3     6   ar
    29    11     9    1
    30    11    12   ar
    31     8     9    2
    32     8    17    1
    33     5     6   ar
    34     5    17    1
    35    16    12   ar
    36    16    32    1
    37     9    10    1
    38     6    30    1
    39    12    18    1
    40    17    33    1
    41    10    18   am
    42    10    24    2
    43    18    34    1
