@<TRIPOS>MOLECULE
01
 24 24 0 0 0
SMALL
USER_CHARGES

@<TRIPOS>ATOM
      1 C1          1.4990    1.4870    0.7700 C.3     1  MAIN1       0.3184
      2 C2          1.5640    1.6810   -0.7630 C.3     1  MAIN1       0.0596
      3 C3          0.3790    1.0100   -1.4860 C.3     1  MAIN1       0.1146
      4 C4          0.1900   -0.4230   -0.9850 C.3     1  MAIN1       0.1398
      5 C5          0.0080   -0.3790    0.5370 C.3     1  MAIN1       0.2866
      6 C6         -0.3890   -1.7590    1.0840 C.3     1  MAIN1       0.0535
      7 O2          1.6370    3.0730   -1.0800 O.3     1  MAIN1      -0.6476
      8 O3          0.5520    1.0520   -2.9030 O.3     1  MAIN1      -0.6710
      9 O4         -0.9230   -1.0600   -1.6070 O.3     1  MAIN1      -0.6687
     10 O5          1.1950    0.1310    1.1580 O.3     1  MAIN1      -0.4706
     11 O6          0.3560   -2.7930    0.4430 O.3     1  MAIN1      -0.6751
     12 O7          0.6260    2.4370    1.3860 O.3     1  MAIN1      -0.6350
     13 H1          2.5090    1.6969    1.1519 H       1  MAIN1       0.1050
     14 H2          2.4866    1.2020   -1.1228 H       1  MAIN1       0.0929
     15 H3         -0.5322    1.5760   -1.2423 H       1  MAIN1       0.1145
     16 H4          1.0949   -1.0023   -1.2206 H       1  MAIN1       0.1408
     17 H5         -0.8140    0.3165    0.7618 H       1  MAIN1       0.0635
     18 H6         -1.4617   -1.9231    0.9039 H       1  MAIN1       0.0766
     19 H7         -0.1900   -1.7889    2.1654 H       1  MAIN1       0.0632
     20 H8          2.3732    3.4635   -0.6238 H       1  MAIN1       0.4208
     21 H9          0.6665    1.9530   -3.1814 H       1  MAIN1       0.4334
     22 H10        -0.7925   -1.0778   -2.5478 H       1  MAIN1       0.4418
     23 H11         0.0955   -3.6359    0.7953 H       1  MAIN1       0.4370
     24 H12         0.8613    3.3130    1.1035 H       1  MAIN1       0.4061
@<TRIPOS>BOND
     1     1    10    1
     2     1     2    1
     3     2     7    1
     4     2     3    1
     5     3     8    1
     6     3     4    1
     7     4     9    1
     8     4     5    1
     9     5    10    1
    10     5     6    1
    11     6    11    1
    12     1    12    1
    13     1    13    1
    14     2    14    1
    15     3    15    1
    16     4    16    1
    17     5    17    1
    18     6    18    1
    19     6    19    1
    20     7    20    1
    21     8    21    1
    22     9    22    1
    23    11    23    1
    24    12    24    1
