@<TRIPOS>MOLECULE
02
 26 26 0 0 0
SMALL
USER_CHARGES

@<TRIPOS>ATOM
      1 C1          1.1500    1.4030    0.9190 C.3     1  MAIN1       0.1744
      2 C2          1.3480    1.6400   -0.5990 C.3     1  MAIN1       0.1329
      3 C3          0.2610    0.9300   -1.4360 C.3     1  MAIN1       0.1526
      4 C4          0.1130   -0.5290   -0.9780 C.3     1  MAIN1       0.2311
      5 C5         -0.1330   -0.5590    0.5360 C.3     1  MAIN1       0.2576
      6 C6         -0.4570   -1.9780    1.0200 C.3     1  MAIN1       0.0532
      7 C7         -0.0140    2.2340    1.4910 C.3     1  MAIN1      -0.2261
      8 O2          1.4190    3.0390   -0.9020 O.3     1  MAIN1      -0.6674
      9 O3          0.5430    1.0200   -2.8360 O.3     1  MAIN1      -0.6943
     10 O4         -0.9430   -1.1960   -1.6580 O.3     1  MAIN1      -0.6930
     11 O5          0.9880    0.0060    1.2250 O.3     1  MAIN1      -0.5198
     12 O6          0.4060   -2.9270    0.3990 O.3     1  MAIN1      -0.6599
     13 H1          2.0684    1.7424    1.4204 H       1  MAIN1       0.0866
     14 H2          2.3151    1.1952   -0.8763 H       1  MAIN1       0.0510
     15 H3         -0.6962    1.4406   -1.2543 H       1  MAIN1       0.0881
     16 H4          1.0520   -1.0590   -1.1955 H       1  MAIN1       0.1095
     17 H5         -1.0094    0.0707    0.7491 H       1  MAIN1       0.0447
     18 H6         -1.5003   -2.2175    0.7665 H       1  MAIN1       0.0721
     19 H7         -0.3240   -2.0275    2.1108 H       1  MAIN1       0.0632
     20 H8          0.1361    3.2950    1.2424 H       1  MAIN1       0.0681
     21 H9         -0.0473    2.1147    2.5840 H       1  MAIN1       0.0803
     22 H10        -0.9620    1.8859    1.0551 H       1  MAIN1       0.0593
     23 H11         2.0952    3.4439   -0.3716 H       1  MAIN1       0.4235
     24 H12         0.6279    1.9332   -3.0838 H       1  MAIN1       0.4409
     25 H13        -0.7818   -1.1721   -2.5939 H       1  MAIN1       0.4410
     26 H14         0.1927   -3.7993    0.7089 H       1  MAIN1       0.4304
@<TRIPOS>BOND
     1     1    11    1
     2     1     7    1
     3     1     2    1
     4     2     8    1
     5     2     3    1
     6     3     9    1
     7     3     4    1
     8     4    10    1
     9     4     5    1
    10    11     5    1
    11     5     6    1
    12     6    12    1
    13     1    13    1
    14     2    14    1
    15     3    15    1
    16     4    16    1
    17     5    17    1
    18     6    18    1
    19     6    19    1
    20     7    20    1
    21     7    21    1
    22     7    22    1
    23     8    23    1
    24     9    24    1
    25    10    25    1
    26    12    26    1
