@<TRIPOS>MOLECULE
10
 27 27 0 0 0
SMALL
USER_CHARGES

@<TRIPOS>ATOM
      1 C1          1.2800    1.1460    0.8410 C.3     1  MAIN1       0.1359
      2 C2          1.3520    1.4670   -0.6730 C.3     1  MAIN1       0.1549
      3 C3          0.1830    0.8230   -1.4480 C.3     1  MAIN1       0.0573
      4 C4          0.0000   -0.6420   -1.0160 C.3     1  MAIN1       0.3229
      5 C5         -0.1470   -0.6980    0.5070 C.3     1  MAIN1       0.1450
      6 C6         -0.4930   -2.1160    0.9750 C.3     1  MAIN1       0.1187
      7 C7          2.5700    1.5630    1.5390 C.3     1  MAIN1       0.1645
      8 O2          1.3830    2.8870   -0.8910 O.3     1  MAIN1      -0.6772
      9 O3          0.3840    0.9450   -2.8600 O.3     1  MAIN1      -0.6891
     10 O4         -1.1270   -1.2500   -1.6280 O.3     1  MAIN1      -0.7026
     11 O5          1.0590   -0.2430    1.1030 O.3     1  MAIN1      -0.4958
     12 O6          0.4060   -3.0550    0.3960 O.3     1  MAIN1      -0.6515
     13 O7          2.2920    2.4680    2.5950 O.3     1  MAIN1      -0.6913
     14 H1          0.4434    1.7176    1.2692 H       1  MAIN1       0.0933
     15 H2          2.2889    1.0425   -1.0628 H       1  MAIN1       0.0848
     16 H3         -0.7379    1.3673   -1.1919 H       1  MAIN1       0.0896
     17 H4          0.8979   -1.2056   -1.3094 H       1  MAIN1       0.0832
     18 H5         -0.9645   -0.0263    0.8077 H       1  MAIN1       0.0518
     19 H6         -1.5209   -2.3597    0.6684 H       1  MAIN1       0.0651
     20 H7         -0.4156   -2.1664    2.0711 H       1  MAIN1       0.0466
     21 H8          3.2350    2.0498    0.8105 H       1  MAIN1       0.0483
     22 H9          3.0654    0.6702    1.9482 H       1  MAIN1       0.0387
     23 H10         2.1075    3.2659   -0.4072 H       1  MAIN1       0.4417
     24 H11         0.4925    1.8612   -3.0864 H       1  MAIN1       0.4539
     25 H12        -1.0325   -1.2135   -2.5726 H       1  MAIN1       0.4472
     26 H13         0.1837   -3.9300    0.6917 H       1  MAIN1       0.4203
     27 H14         3.1042    2.7183    3.0196 H       1  MAIN1       0.4437
@<TRIPOS>BOND
     1    11     1    1
     2     1     2    1
     3     1     7    1
     4     7    13    1
     5     2     8    1
     6     2     3    1
     7     3     9    1
     8     3     4    1
     9     4    10    1
    10     4     5    1
    11     5    11    1
    12     5     6    1
    13     6    12    1
    14     1    14    1
    15     2    15    1
    16     3    16    1
    17     4    17    1
    18     5    18    1
    19     6    19    1
    20     6    20    1
    21     7    21    1
    22     7    22    1
    23     8    23    1
    24     9    24    1
    25    10    25    1
    26    12    26    1
    27    13    27    1
