@<TRIPOS>MOLECULE
18
 28 28 0 0 0
SMALL
USER_CHARGES

@<TRIPOS>ATOM
      1 C1          1.1780    1.4690    0.9120 C.3     1  MAIN1       0.7236
      2 C2          1.4090    1.6150   -0.6150 C.3     1  MAIN1      -0.1431
      3 C3          0.2800    0.9580   -1.4290 C.3     1  MAIN1       0.1809
      4 C4          0.0750   -0.4770   -0.9380 C.3     1  MAIN1       0.1497
      5 C5         -0.2960   -0.4380    0.5480 C.3     1  MAIN1       0.1007
      6 C6         -0.6230   -1.8520    1.0520 C.3     1  MAIN1       0.1210
      7 O2          1.5570    2.9960   -0.9760 O.3     1  MAIN1      -0.6542
      8 O3          0.5550    1.0140   -2.8320 O.3     1  MAIN1      -0.6636
      9 O4         -0.9270   -1.1640   -1.6750 O.3     1  MAIN1      -0.6420
     10 O5          0.7620    0.1460    1.3120 O.3     1  MAIN1      -0.4559
     11 O6          0.2900   -2.8040    0.5050 O.3     1  MAIN1      -0.6630
     12 C7          2.5160    1.6690    1.6360 C.3     1  MAIN1      -0.3004
     13 O1          0.2520    2.4760    1.3380 O.3     1  MAIN1      -0.7025
     14 C           2.3230    2.1550    3.0130 C.1     1  MAIN1       0.1717
     15 N           2.1660    2.5690    4.0690 N.1     1  MAIN1      -0.3038
     16 H1          2.3469    1.0968   -0.8635 H       1  MAIN1       0.1572
     17 H2         -0.6490    1.5181   -1.2468 H       1  MAIN1       0.0831
     18 H3          1.0222   -1.0239   -1.0548 H       1  MAIN1       0.1252
     19 H4         -1.1931    0.1874    0.6663 H       1  MAIN1       0.1065
     20 H5         -1.6465   -2.1166    0.7479 H       1  MAIN1       0.0622
     21 H6         -0.5502   -1.8705    2.1494 H       1  MAIN1       0.0626
     22 H7          2.2571    3.3838   -0.4642 H       1  MAIN1       0.4514
     23 H8          0.6753    1.9188   -3.0952 H       1  MAIN1       0.4124
     24 H9         -0.6874   -1.1824   -2.5941 H       1  MAIN1       0.4054
     25 H10         0.0735   -3.6713    0.8266 H       1  MAIN1       0.4282
     26 H11         3.1161    2.4039    1.0795 H       1  MAIN1       0.1845
     27 H12         3.0507    0.7083    1.6688 H       1  MAIN1       0.1509
     28 H13         0.5604    3.3293    1.0564 H       1  MAIN1       0.4514
@<TRIPOS>BOND
     1     1    10    1
     2     1     2    1
     3    12     1    1
     4     1    13    1
     5     2     7    1
     6     2     3    1
     7     3     8    1
     8     3     4    1
     9     4     9    1
    10     5     4    1
    11    10     5    1
    12     5     6    1
    13     6    11    1
    14    14    15    3
    15    14    12    1
    16     2    16    1
    17     3    17    1
    18     4    18    1
    19     5    19    1
    20     6    20    1
    21     6    21    1
    22     7    22    1
    23     8    23    1
    24     9    24    1
    25    11    25    1
    26    12    26    1
    27    12    27    1
    28    13    28    1
