@<TRIPOS>MOLECULE
36
 30 30 0 0 0
SMALL
USER_CHARGES

@<TRIPOS>ATOM
      1 C1          1.3630    1.1480    0.8590 C.3     1  MAIN1       0.1126
      2 C2          1.3390    1.5340   -0.6450 C.3     1  MAIN1       0.2170
      3 C3          0.1870    0.8580   -1.4270 C.3     1  MAIN1       0.0942
      4 C4          0.0220   -0.6100   -1.0050 C.3     1  MAIN1       0.3356
      5 C5         -0.1140   -0.6690    0.5160 C.3     1  MAIN1       0.0073
      6 C6         -0.4760   -2.0840    0.9800 C.3     1  MAIN1       0.0898
      7 O2          1.2730    2.9600   -0.7900 O.3     1  MAIN1      -0.7378
      8 O3          0.3990    0.9760   -2.8380 O.3     1  MAIN1      -0.7100
      9 O4         -1.1040   -1.2240   -1.6170 O.3     1  MAIN1      -0.6956
     10 O5          1.1120   -0.2430    1.0890 O.3     1  MAIN1      -0.3373
     11 O6          0.4050   -3.0340    0.3910 O.3     1  MAIN1      -0.6486
     12 N1          2.6860    1.4430    1.4320 N.am    1  MAIN1      -0.8597
     13 C7          2.8280    1.9890    2.7020 C.2     1  MAIN1       1.1346
     14 C8          4.2260    2.1370    3.2310 C.3     1  MAIN1      -1.0489
     15 O7          1.8340    2.3160    3.3510 O.2     1  MAIN1      -0.6921
     16 Br1         4.2640    3.3040    4.5830 Cl      1  MAIN1       0.0573
     17 H1          0.5957    1.7396    1.3798 H       1  MAIN1       0.1365
     18 H2          2.2848    1.1905   -1.0893 H       1  MAIN1       0.0745
     19 H3         -0.7461    1.3857   -1.1803 H       1  MAIN1       0.0871
     20 H4          0.9234   -1.1640   -1.3060 H       1  MAIN1       0.0889
     21 H5         -0.9143    0.0166    0.8313 H       1  MAIN1       0.1022
     22 H6         -1.5094   -2.3118    0.6798 H       1  MAIN1       0.0911
     23 H7         -0.3915   -2.1402    2.0753 H       1  MAIN1       0.0527
     24 H8          1.9851    3.3608   -0.3055 H       1  MAIN1       0.5004
     25 H9          0.4972    1.8925   -3.0679 H       1  MAIN1       0.4700
     26 H10        -1.0123   -1.1834   -2.5617 H       1  MAIN1       0.4476
     27 H11         0.1720   -3.9068    0.6850 H       1  MAIN1       0.4262
     28 H12         3.5048    1.2453    0.8930 H       1  MAIN1       0.4707
     29 H13         4.8820    2.4963    2.4244 H       1  MAIN1       0.3810
     30 H14         4.5837    1.1595    3.5866 H       1  MAIN1       0.3527
@<TRIPOS>BOND
     1     1    10    1
     2     1     2    1
     3     2     7    1
     4     2     3    1
     5     3     8    1
     6     3     4    1
     7     4     9    1
     8     4     5    1
     9     5    10    1
    10     5     6    1
    11     6    11    1
    12     1    12    1
    13    12    13   am
    14    13    14    1
    15    13    15    2
    16    14    16    1
    17     1    17    1
    18     2    18    1
    19     3    19    1
    20     4    20    1
    21     5    21    1
    22     6    22    1
    23     6    23    1
    24     7    24    1
    25     8    25    1
    26     9    26    1
    27    11    27    1
    28    12    28    1
    29    14    29    1
    30    14    30    1
