@<TRIPOS>MOLECULE
45
 35 35 0 0 0
SMALL
USER_CHARGES

@<TRIPOS>ATOM
      1 C1          1.2090    1.2100    0.9160 C.3     1  MAIN1       0.3154
      2 C2          1.2950    1.5160   -0.6180 C.3     1  MAIN1       0.0954
      3 C3          0.1800    0.8280   -1.4380 C.3     1  MAIN1       0.0598
      4 C4          0.0320   -0.6400   -1.0100 C.3     1  MAIN1       0.3996
      5 C5         -0.1520   -0.6980    0.5070 C.3     1  MAIN1      -0.0401
      6 C6         -0.4790   -2.1190    0.9760 C.3     1  MAIN1       0.1123
      7 O1         -0.2890    1.6850    2.7570 O.2     1  MAIN1      -0.6522
      8 O2          1.3650    2.9250   -0.9030 O.3     1  MAIN1      -0.6799
      9 O3          0.4270    0.9560   -2.8430 O.3     1  MAIN1      -0.6820
     10 O4         -1.0660   -1.2770   -1.6480 O.3     1  MAIN1      -0.6908
     11 O5          1.0190   -0.1940    1.1440 O.3     1  MAIN1      -0.3428
     12 O6          0.4210   -3.0500    0.3860 O.3     1  MAIN1      -0.6531
     13 N1         -0.6390    2.9170    0.9200 N.am    1  MAIN1      -1.2089
     14 N2          2.5780    1.4310    1.4610 N.am    1  MAIN1      -1.0222
     15 C7          3.0670    2.0540    2.6210 C.2     1  MAIN1       1.2107
     16 C1          0.0640    1.9440    1.6130 C.2     1  MAIN1       0.8828
     17 O7          2.4120    2.6870    3.4550 O.2     1  MAIN1      -0.7653
     18 O8          4.3855    1.9461    2.7583 O.3     1  MAIN1      -0.4908
     19 C8          5.0105    2.6855    3.8107 C.3     1  MAIN1       0.0191
     20 H1          2.2452    1.0818   -0.9624 H       1  MAIN1       0.1208
     21 H2         -0.7688    1.3392   -1.2179 H       1  MAIN1       0.0953
     22 H3          0.9520   -1.1784   -1.2815 H       1  MAIN1       0.0704
     23 H4         -0.9984   -0.0497    0.7776 H       1  MAIN1       0.1186
     24 H5         -1.5081   -2.3714    0.6808 H       1  MAIN1       0.0827
     25 H6         -0.3886   -2.1702    2.0711 H       1  MAIN1       0.0607
     26 H7          2.0575    3.3187   -0.3854 H       1  MAIN1       0.4656
     27 H8          0.5122    1.8753   -3.0671 H       1  MAIN1       0.4512
     28 H9         -0.9498   -1.2399   -2.5901 H       1  MAIN1       0.4378
     29 H10         0.2093   -3.9271    0.6834 H       1  MAIN1       0.4234
     30 H11        -0.3766    3.1523   -0.0158 H       1  MAIN1       0.5399
     31 H12        -1.4086    3.3837    1.3558 H       1  MAIN1       0.5039
     32 H13         3.3001    1.0574    0.8788 H       1  MAIN1       0.5002
     33 H14         6.0941    2.4964    3.7982 H       1  MAIN1       0.0768
     34 H15         4.5943    2.3691    4.7785 H       1  MAIN1       0.1057
     35 H16         4.8241    3.7597    3.6650 H       1  MAIN1       0.0802
@<TRIPOS>BOND
     1     1    11    1
     2    16     7    2
     3     1     2    1
     4     2     8    1
     5     2     3    1
     6     3     9    1
     7     3     4    1
     8     4    10    1
     9     5     4    1
    10    11     5    1
    11     5     6    1
    12     6    12    1
    13    16    13   am
    14     1    14    1
    15    14    15   am
    16     1    16    1
    17    15    17    2
    18    15    18    1
    19    18    19    1
    20     2    20    1
    21     3    21    1
    22     4    22    1
    23     5    23    1
    24     6    24    1
    25     6    25    1
    26     8    26    1
    27     9    27    1
    28    10    28    1
    29    12    29    1
    30    13    30    1
    31    13    31    1
    32    14    32    1
    33    19    33    1
    34    19    34    1
    35    19    35    1
