@<TRIPOS>MOLECULE
56
 29 30 0 0 0
SMALL
USER_CHARGES

@<TRIPOS>ATOM
      1 C1          1.3330    1.0760    0.8870 C.3     1  MAIN1       0.5641
      2 C2          1.2410    1.5380   -0.5980 C.3     1  MAIN1       0.0683
      3 C3          0.1190    0.8350   -1.4030 C.3     1  MAIN1       0.1155
      4 C4         -0.0040   -0.6480   -1.0100 C.3     1  MAIN1       0.3032
      5 C5         -0.1040   -0.7560    0.5100 C.3     1  MAIN1       0.0681
      6 C6         -0.4510   -2.1800    0.9530 C.3     1  MAIN1       0.0972
      7 O2          1.1520    2.9670   -0.7100 O.3     1  MAIN1      -0.6510
      8 O3          0.3500    0.9740   -2.8100 O.3     1  MAIN1      -0.6924
      9 O4         -1.1310   -1.2690   -1.6130 O.3     1  MAIN1      -0.6819
     10 O5          1.1290   -0.3280    1.0680 O.3     1  MAIN1      -0.4410
     11 O6          0.4470   -3.1090    0.3590 O.3     1  MAIN1      -0.6570
     12 N1          2.6770    1.3390    1.4190 N.am    1  MAIN1      -1.0922
     13 C7          2.6210    1.8930    2.6970 C.2     1  MAIN1       1.0918
     14 N2          1.2500    2.1800    2.9940 N.am    1  MAIN1      -0.9882
     15 C8          0.4620    1.8360    1.8570 C.2     1  MAIN1       0.7694
     16 O1          3.5790    2.1190    3.4450 O.2     1  MAIN1      -0.6594
     17 O7         -0.7240    2.1310    1.7440 O.2     1  MAIN1      -0.5633
     18 H1          2.1898    1.2435   -1.0701 H       1  MAIN1       0.0958
     19 H2         -0.8337    1.3294   -1.1626 H       1  MAIN1       0.0996
     20 H3          0.9018   -1.1739   -1.3461 H       1  MAIN1       0.0879
     21 H4         -0.9025   -0.0851    0.8596 H       1  MAIN1       0.0878
     22 H5         -1.4789   -2.4176    0.6416 H       1  MAIN1       0.0862
     23 H6         -0.3743   -2.2492    2.0481 H       1  MAIN1       0.0581
     24 H7          1.8511    3.3682   -0.2072 H       1  MAIN1       0.4254
     25 H8          0.4225    1.8955   -3.0295 H       1  MAIN1       0.4532
     26 H9         -1.0634   -1.1987   -2.5580 H       1  MAIN1       0.4425
     27 H10         0.2239   -3.9888    0.6396 H       1  MAIN1       0.4284
     28 H11         3.5253    1.1450    0.9263 H       1  MAIN1       0.5399
     29 H12         0.9041    2.5576    3.8530 H       1  MAIN1       0.5440
@<TRIPOS>BOND
     1     1    12    1
     2    12    13   am
     3     1    10    1
     4     1     2    1
     5     2     7    1
     6     2     3    1
     7     3     8    1
     8     3     4    1
     9     4     9    1
    10     4     5    1
    11     5     6    1
    12     5    10    1
    13     6    11    1
    14    13    14   am
    15    14    15   am
    16     1    15    1
    17    13    16    2
    18    15    17    2
    19     2    18    1
    20     3    19    1
    21     4    20    1
    22     5    21    1
    23     6    22    1
    24     6    23    1
    25     7    24    1
    26     8    25    1
    27     9    26    1
    28    11    27    1
    29    12    28    1
    30    14    29    1
