#	Name:			triazolam
#	Creating user name:	becker
#	Creation time:		Wed Apr 19 13:40:35 2006

#	Modifying user name:	becker
#	Modification time:	Wed Apr 19 13:40:35 2006

@<TRIPOS>MOLECULE
triazolam
   35    38     1     0     0
SMALL
NO_CHARGES


@<TRIPOS>ATOM
      1 C           1.460000   -3.405000   -1.394000 C.ar      1 <1>         0.000000 
      2 H           1.270000   -4.371000   -1.850000 H         1 <1>         0.000000 
      3 C           2.752000   -3.065000   -0.988000 C.ar      1 <1>         0.000000 
      4 C           2.993000   -1.806000   -0.432000 C.ar      1 <1>         0.000000 
      5 H           4.010000   -1.543000   -0.159000 H         1 <1>         0.000000 
      6 C           1.948000   -0.896000   -0.234000 C.ar      1 <1>         0.000000 
      7 C           0.639000   -1.270000   -0.572000 C.ar      1 <1>         0.000000 
      8 C           0.417000   -2.495000   -1.212000 C.ar      1 <1>         0.000000 
      9 H          -0.571000   -2.747000   -1.581000 H         1 <1>         0.000000 
     10 N          -0.411000   -0.460000   -0.291000 N.pl3     1 <1>         0.000000 
     11 C          -1.554000   -0.751000    0.246000 C.ar      1 <1>         0.000000 
     12 N          -2.341000    0.243000    0.363000 N.ar      1 <1>         0.000000 
     13 N          -1.590000    1.342000   -0.155000 N.ar      1 <1>         0.000000 
     14 C          -0.486000    0.811000   -0.499000 C.ar      1 <1>         0.000000 
     15 C           0.662000    1.577000   -1.083000 C.3       1 <1>         0.000000 
     16 H           0.335000    2.596000   -1.350000 H         1 <1>         0.000000 
     17 H           1.038000    1.087000   -1.995000 H         1 <1>         0.000000 
     18 N           1.683000    1.600000   -0.046000 N.2       1 <1>         0.000000 
     19 C           2.297000    0.459000    0.350000 C.2       1 <1>         0.000000 
     20 C           3.372000    0.516000    1.409000 C.ar      1 <1>         0.000000 
     21 C           3.324000   -0.397000    2.468000 C.ar      1 <1>         0.000000 
     22 H           2.544000   -1.151000    2.501000 H         1 <1>         0.000000 
     23 C           4.272000   -0.341000    3.493000 C.ar      1 <1>         0.000000 
     24 H           4.231000   -1.053000    4.311000 H         1 <1>         0.000000 
     25 C           5.272000    0.635000    3.464000 C.ar      1 <1>         0.000000 
     26 H           5.996000    0.695000    4.271000 H         1 <1>         0.000000 
     27 C           5.339000    1.530000    2.394000 C.ar      1 <1>         0.000000 
     28 H           6.117000    2.287000    2.370000 H         1 <1>         0.000000 
     29 C           4.412000    1.452000    1.351000 C.ar      1 <1>         0.000000 
     30 Cl          4.585000    2.521000   -0.028000 Cl        1 <1>         0.000000 
     31 C          -1.982000   -2.117000    0.719000 C.3       1 <1>         0.000000 
     32 H          -2.664000   -2.010000    1.575000 H         1 <1>         0.000000 
     33 H          -1.117000   -2.714000    1.044000 H         1 <1>         0.000000 
     34 H          -2.514000   -2.645000   -0.086000 H         1 <1>         0.000000 
     35 Cl          4.064000   -4.209000   -1.180000 Cl        1 <1>         0.000000 
@<TRIPOS>BOND
     1    2    1 1    
     2    1    3 ar   
     3    3    4 ar   
     4    4    5 1    
     5    4    6 ar   
     6    6    7 ar   
     7    7    8 ar   
     8    8    9 1    
     9    8    1 ar   
    10    7   10 1    
    11   10   11 ar   
    12   11   12 ar   
    13   12   13 ar   
    14   13   14 ar   
    15   14   10 ar   
    16   14   15 1    
    17   15   16 1    
    18   15   17 1    
    19   15   18 1    
    20   18   19 2    
    21   19    6 1    
    22   19   20 1    
    23   20   21 ar   
    24   21   22 1    
    25   21   23 ar   
    26   23   24 1    
    27   23   25 ar   
    28   25   26 1    
    29   25   27 ar   
    30   27   28 1    
    31   27   29 ar   
    32   29   20 ar   
    33   29   30 1    
    34   11   31 1    
    35   31   32 1    
    36   31   33 1    
    37   31   34 1    
    38    3   35 1    
@<TRIPOS>SUBSTRUCTURE
     1 ****        2 TEMP              0 ****  ****    0 ROOT 
