@<TRIPOS>MOLECULE
MOLECULE_27
 88 95 0 0 0
SMALL
GASTEIGER

@<TRIPOS>ATOM
      1 C          -2.2157    2.8236   -6.1153 C.ar    1  LIG111     -0.0547
      2 C           2.0737   15.5710   -0.7919 C.3     1  LIG111     -0.0517
      3 C          -1.0576    2.1057   -5.7731 C.ar    1  LIG111     -0.0162
      4 C           2.4434   16.8620   -0.0111 C.3     1  LIG111     -0.0533
      5 C          -0.6748    1.9262   -4.4358 C.ar    1  LIG111      0.1588
      6 C          -1.5079    2.4514   -3.4457 C.ar    1  LIG111      0.1668
      7 C          -2.6697    3.0988   -3.8065 C.ar    1  LIG111      0.0137
      8 C          -3.0289    3.3763   -5.1183 C.ar    1  LIG111     -0.0411
      9 C          -4.2467    4.2750   -5.3689 C.3     1  LIG111     -0.0368
     10 C           1.4337   18.0066   -0.2989 C.3     1  LIG111     -0.0559
     11 C           1.8002   19.2942    0.4841 C.3     1  LIG111     -0.0653
     12 C          -4.9982    4.6941   -4.0520 C.3     1  LIG111     -0.0432
     13 H          -2.4816    2.9575   -7.1587 H       1  LIG111      0.0622
     14 C          -4.0265    4.8656   -2.8337 C.3     1  LIG111      0.0720
     15 C          -2.9379    5.9475   -3.1113 C.3     1  LIG111      0.0031
     16 H           2.0842   15.7825   -1.8738 H       1  LIG111      0.0266
     17 H           1.0539   15.2605   -0.5108 H       1  LIG111      0.0266
     18 C          -1.8551    5.8477   -2.0476 C.ar    1  LIG111     -0.0128
     19 C          -1.5304    4.6762   -1.3643 C.ar    1  LIG111      0.0622
     20 C          -2.2272    3.3316   -1.5419 C.3     1  LIG111      0.1523
     21 H          -0.4413    1.6817   -6.5591 H       1  LIG111      0.0655
     22 C          -3.4126    3.4655   -2.5592 C.3     1  LIG111      0.0677
     23 C          -4.5099    2.4103   -2.2643 C.3     1  LIG111     -0.0518
     24 H           3.4561   17.1866   -0.3016 H       1  LIG111      0.0265
     25 H           2.4464   16.6461    1.0700 H       1  LIG111      0.0265
     26 C          -5.5927    2.3948   -3.3745 C.3     1  LIG111     -0.0891
     27 H          -4.9049    3.7713   -6.0874 H       1  LIG111      0.0298
     28 H          -3.8563    5.1728   -5.8739 H       1  LIG111      0.0298
     29 N          -6.1004    3.7638   -3.6563 N.4     1  LIG111      0.3839
     30 C          -7.2910    3.7341   -4.5564 C.3     1  LIG111     -0.0872
     31 H           1.4275   18.2306   -1.3786 H       1  LIG111      0.0263
     32 H           0.4196   17.6863   -0.0070 H       1  LIG111      0.0263
     33 C          -7.8985    5.1432   -4.7887 C.3     1  LIG111     -0.0559
     34 H           1.0704   20.0902    0.2670 H       1  LIG111      0.0230
     35 C          -8.9043    5.2420   -5.9574 C.3     1  LIG111     -0.0517
     36 H           2.8016   19.6482    0.1938 H       1  LIG111      0.0230
     37 H           1.7939   19.0996    1.5680 H       1  LIG111      0.0230
     38 C          -7.5044    5.8798   -6.0885 C.3     1  LIG111     -0.0517
     39 H          -5.4359    5.6908   -4.2302 H       1  LIG111      0.0126
     40 H          -3.3806    6.9548   -3.1141 H       1  LIG111      0.0341
     41 O          -1.2648    2.3797   -2.0804 O.3     1  LIG111     -0.4778
     42 N          -0.5113    4.9143   -0.5136 N.ar    1  LIG111     -0.3548
     43 H          -2.4160    5.7998   -4.0661 H       1  LIG111      0.0341
     44 C          -0.1835    6.2161   -0.6164 C.ar    1  LIG111      0.0470
     45 C           0.8060    6.9143    0.0742 C.ar    1  LIG111     -0.0375
     46 H          -2.5598    3.0193   -0.5403 H       1  LIG111      0.0809
     47 C           0.9411    8.2793   -0.2079 C.ar    1  LIG111     -0.0565
     48 H          -4.9827    2.6586   -1.3003 H       1  LIG111      0.0258
     49 C           0.1093    8.9197   -1.1422 C.ar    1  LIG111     -0.0452
     50 C          -0.8650    8.1944   -1.8433 C.ar    1  LIG111     -0.0491
     51 H          -4.0601    1.4075   -2.1725 H       1  LIG111      0.0258
     52 C          -0.9985    6.8364   -1.5555 C.ar    1  LIG111      0.0036
     53 C           0.2633   10.4257   -1.4006 C.3     1  LIG111     -0.0120
     54 H          -6.4080    1.7319   -3.0360 H       1  LIG111      0.0059
     55 H          -5.1768    1.9462   -4.2903 H       1  LIG111      0.0059
     56 C           1.2760   10.6585   -2.5527 C.3     1  LIG111      0.0170
     57 H          -6.4940    4.1388   -2.7155 H       1  LIG111     -0.0813
     58 H          -8.1008    3.1452   -4.0926 H       1  LIG111      0.0062
     59 N           2.5859   10.1249   -2.1752 N.am    1  LIG111     -0.2991
     60 H          -7.0613    3.2412   -5.5123 H       1  LIG111      0.0062
     61 C           3.5364   10.7336   -1.4036 C.2     1  LIG111      0.2996
     62 O           4.4802   10.0196   -1.0938 O.2     1  LIG111     -0.2529
     63 C           2.6955   13.1146   -1.2498 C.3     1  LIG111      0.0131
     64 N           3.6011   12.0123   -0.9244 N.am    1  LIG111     -0.2994
     65 H          -8.1553    5.7731   -3.9217 H       1  LIG111      0.0283
     66 C           3.0668   14.4161   -0.4829 C.3     1  LIG111     -0.0373
     67 O          -4.7565    5.2296   -1.6477 O.3     1  LIG111     -0.3888
     68 H          -9.7441    5.9457   -5.8467 H       1  LIG111      0.0267
     69 O           0.5006    1.2437   -4.1173 O.3     1  LIG111     -0.5033
     70 H          -9.0857    4.3436   -6.5677 H       1  LIG111      0.0267
     71 H          -7.4582    6.9788   -6.0387 H       1  LIG111      0.0267
     72 H          -6.8073    5.3849   -6.7813 H       1  LIG111      0.0267
     73 H          -0.0678    4.2233    0.1094 H       1  LIG111      0.1657
     74 H           1.4421    6.4170    0.7989 H       1  LIG111      0.0638
     75 H           1.7078    8.8465    0.3104 H       1  LIG111      0.0621
     76 H          -1.4976    8.6667   -2.5867 H       1  LIG111      0.0627
     77 H           0.5975   10.9039   -0.4690 H       1  LIG111      0.0328
     78 H          -0.7127   10.8625   -1.6675 H       1  LIG111      0.0328
     79 H           1.3026   11.6952   -2.9010 H       1  LIG111      0.0466
     80 H           0.8963   10.0895   -3.4194 H       1  LIG111      0.0466
     81 H           2.7520    9.1709   -2.4466 H       1  LIG111      0.1502
     82 H           2.7619   13.3419   -2.3254 H       1  LIG111      0.0462
     83 H           1.6627   12.8824   -0.9633 H       1  LIG111      0.0462
     84 H           4.3816   12.2450   -0.3371 H       1  LIG111      0.1502
     85 H           4.0871   14.7265   -0.7634 H       1  LIG111      0.0280
     86 H           3.0543   14.2090    0.6002 H       1  LIG111      0.0280
     87 H          -5.1978    6.0691   -1.7217 H       1  LIG111      0.2101
     88 H           0.6532    1.1916   -3.1799 H       1  LIG111      0.2923
@<TRIPOS>BOND
     1    13     1    1
     2    72    38    1
     3    70    35    1
     4    21     3    1
     5     1     3   ar
     6     1     8   ar
     7    38    71    1
     8    38    35    1
     9    38    33    1
    10    27     9    1
    11    35    68    1
    12    35    33    1
    13    28     9    1
    14     3     5   ar
    15    60    30    1
    16     9     8    1
    17     9    12    1
    18     8     7   ar
    19    33    30    1
    20    33    65    1
    21    30    58    1
    22    30    29    1
    23     5    69    1
    24     5     6   ar
    25    55    26    1
    26    39    12    1
    27    69    88    1
    28    43    15    1
    29    12    29    1
    30    12    14    1
    31     7     6   ar
    32     7    22    1
    33    29    26    1
    34    29    57    1
    35     6    41    1
    36    80    56    1
    37    26    54    1
    38    26    23    1
    39    40    15    1
    40    15    14    1
    41    15    18    1
    42    79    56    1
    43    14    22    1
    44    14    67    1
    45    76    50    1
    46    22    23    1
    47    22    20    1
    48    56    59    1
    49    56    53    1
    50    81    59    1
    51    82    63    1
    52    23    51    1
    53    23    48    1
    54    59    61   am
    55    41    20    1
    56    18    52   ar
    57    18    19   ar
    58    16     2    1
    59    50    52   ar
    60    50    49   ar
    61    87    67    1
    62    78    53    1
    63    52    44   ar
    64    20    19    1
    65    20    46    1
    66    61    62    2
    67    61    64   am
    68    53    49    1
    69    53    77    1
    70    31    10    1
    71    19    42   ar
    72    63    83    1
    73    63    64    1
    74    63    66    1
    75    49    47   ar
    76    64    84    1
    77     2    17    1
    78     2    66    1
    79     2     4    1
    80    85    66    1
    81    44    42   ar
    82    44    45   ar
    83    42    73    1
    84    66    86    1
    85    24     4    1
    86    10     4    1
    87    10    32    1
    88    10    11    1
    89    47    45   ar
    90    47    75    1
    91     4    25    1
    92    45    74    1
    93    36    11    1
    94    34    11    1
    95    11    37    1
