@<TRIPOS>MOLECULE
MOLECULE_24
 81 88 0 0 0
SMALL
GASTEIGER

@<TRIPOS>ATOM
      1 C          -2.2158    2.8209   -6.1161 C.ar    1  LIG111     -0.0547
      2 C           5.0088   12.2048   -0.3368 C.3     1  LIG111     -0.0358
      3 C          -1.0544    2.1086   -5.7733 C.ar    1  LIG111     -0.0162
      4 C           4.6927   13.6124    0.2493 C.3     1  LIG111     -0.0621
      5 C          -0.6710    1.9313   -4.4358 C.ar    1  LIG111      0.1588
      6 C          -1.5077    2.4510   -3.4457 C.ar    1  LIG111      0.1668
      7 C          -2.6713    3.0945   -3.8074 C.ar    1  LIG111      0.0137
      8 C          -3.0307    3.3714   -5.1194 C.ar    1  LIG111     -0.0411
      9 C          -4.2495    4.2688   -5.3707 C.3     1  LIG111     -0.0368
     10 C           6.2316   12.3228   -1.2946 C.3     1  LIG111     -0.0621
     11 H          -2.4828    2.9525   -7.1594 H       1  LIG111      0.0622
     12 C          -4.9970    4.6944   -4.0537 C.3     1  LIG111     -0.0432
     13 H           5.2595   11.5678    0.5283 H       1  LIG111      0.0301
     14 C          -4.0221    4.8636   -2.8379 C.3     1  LIG111      0.0720
     15 C          -2.9264    5.9378   -3.1206 C.3     1  LIG111      0.0031
     16 H          -0.4359    1.6876   -6.5592 H       1  LIG111      0.0655
     17 H           5.5755   14.0232    0.7640 H       1  LIG111      0.0232
     18 C          -1.8496    5.8383   -2.0510 C.ar    1  LIG111     -0.0128
     19 C          -1.5419    4.6707   -1.3532 C.ar    1  LIG111      0.0622
     20 C          -2.2337    3.3250   -1.5401 C.3     1  LIG111      0.1523
     21 H           3.8694   13.5572    0.9789 H       1  LIG111      0.0232
     22 C          -3.4156    3.4609   -2.5610 C.3     1  LIG111      0.0677
     23 C          -4.5157    2.4083   -2.2672 C.3     1  LIG111     -0.0518
     24 H           4.4009   14.3096   -0.5512 H       1  LIG111      0.0232
     25 H          -4.9104    3.7633   -6.0855 H       1  LIG111      0.0298
     26 C          -5.6001    2.3979   -3.3755 C.3     1  LIG111     -0.0891
     27 H          -3.8594    5.1647   -5.8796 H       1  LIG111      0.0298
     28 H           6.4696   11.3701   -1.7873 H       1  LIG111      0.0232
     29 N          -6.1023    3.7697   -3.6536 N.4     1  LIG111      0.3839
     30 C          -7.2973    3.7476   -4.5478 C.3     1  LIG111     -0.0872
     31 H           7.1211   12.6484   -0.7331 H       1  LIG111      0.0232
     32 H           6.0308   13.0653   -2.0822 H       1  LIG111      0.0232
     33 C          -7.9008    5.1600   -4.7706 C.3     1  LIG111     -0.0559
     34 H          -5.4305    5.6927   -4.2327 H       1  LIG111      0.0126
     35 C          -8.9106    5.2684   -5.9349 C.3     1  LIG111     -0.0517
     36 H          -3.3634    6.9477   -3.1294 H       1  LIG111      0.0341
     37 H          -2.4030    5.7827   -4.0734 H       1  LIG111      0.0341
     38 C          -7.5087    5.9013   -6.0682 C.3     1  LIG111     -0.0517
     39 H          -2.5690    3.0069   -0.5412 H       1  LIG111      0.0809
     40 H          -4.9867    2.6569   -1.3024 H       1  LIG111      0.0258
     41 O          -1.2667    2.3781   -2.0801 O.3     1  LIG111     -0.4778
     42 N          -0.5428    4.9132   -0.4803 N.ar    1  LIG111     -0.3548
     43 H          -4.0685    1.4042   -2.1772 H       1  LIG111      0.0258
     44 C          -0.2025    6.2109   -0.5926 C.ar    1  LIG111      0.0470
     45 C           0.7716    6.9114    0.1168 C.ar    1  LIG111     -0.0375
     46 H          -6.4174    1.7379   -3.0361 H       1  LIG111      0.0059
     47 C           0.9378    8.2665   -0.1942 C.ar    1  LIG111     -0.0565
     48 H          -5.1876    1.9483   -4.2924 H       1  LIG111      0.0059
     49 C           0.1618    8.8911   -1.1854 C.ar    1  LIG111     -0.0431
     50 C          -0.8182    8.1705   -1.8833 C.ar    1  LIG111     -0.0490
     51 H          -6.4899    4.1458   -2.7108 H       1  LIG111     -0.0813
     52 C          -0.9855    6.8231   -1.5640 C.ar    1  LIG111      0.0036
     53 C           0.3950   10.3734   -1.5102 C.3     1  LIG111      0.0084
     54 H          -8.1070    3.1597   -4.0825 H       1  LIG111      0.0062
     55 H          -7.0736    3.2581   -5.5069 H       1  LIG111      0.0062
     56 C           1.5046   10.4977   -2.5866 C.3     1  LIG111      0.0818
     57 H          -8.1516    5.7867   -3.8996 H       1  LIG111      0.0283
     58 H          -9.7471    5.9750   -5.8177 H       1  LIG111      0.0267
     59 N           2.6844    9.7168   -2.1931 N.pl3   1  LIG111     -0.2375
     60 H          -9.0979    4.3737   -6.5489 H       1  LIG111      0.0267
     61 C           3.7081   10.1677   -1.5053 C.2     1  LIG111      0.2784
     62 N           4.6510    9.3672   -1.1898 N.2     1  LIG111     -0.1040
     63 H          -7.4565    6.9997   -6.0117 H       1  LIG111      0.0267
     64 C           3.7562   11.6315   -1.0722 C.3     1  LIG111      0.0524
     65 H          -6.8136    5.4067   -6.7633 H       1  LIG111      0.0267
     66 H          -0.1182    4.2268    0.1606 H       1  LIG111      0.1657
     67 O          -4.7481    5.2337   -1.6515 O.3     1  LIG111     -0.3888
     68 H           1.3733    6.4237    0.8763 H       1  LIG111      0.0638
     69 O           0.5091    1.2565   -4.1174 O.3     1  LIG111     -0.5033
     70 H           1.6868    8.8382    0.3446 H       1  LIG111      0.0621
     71 H          -1.4275    8.6365   -2.6498 H       1  LIG111      0.0627
     72 H           0.6825   10.9045   -0.5912 H       1  LIG111      0.0350
     73 H          -0.5362   10.8365   -1.8754 H       1  LIG111      0.0350
     74 H           1.6955   11.5559   -2.8107 H       1  LIG111      0.0727
     75 H           1.1104   10.0570   -3.5184 H       1  LIG111      0.0727
     76 H           2.7118    8.7243   -2.4836 H       1  LIG111      0.2910
     77 H           5.4487    9.6216   -0.6363 H       1  LIG111      0.3629
     78 H           2.8902   11.7837   -0.4127 H       1  LIG111      0.0389
     79 H           3.6405   12.2718   -1.9582 H       1  LIG111      0.0389
     80 H          -5.1836    6.0762   -1.7261 H       1  LIG111      0.2101
     81 H           0.6660    1.2116   -3.1804 H       1  LIG111      0.2923
@<TRIPOS>BOND
     1    11     1    1
     2    65    38    1
     3    16     3    1
     4    60    35    1
     5     1     3   ar
     6     1     8   ar
     7    25     9    1
     8    38    63    1
     9    38    35    1
    10    38    33    1
    11    35    58    1
    12    35    33    1
    13    27     9    1
    14     3     5   ar
    15    55    30    1
    16     9     8    1
    17     9    12    1
    18     8     7   ar
    19    33    30    1
    20    33    57    1
    21    30    54    1
    22    30    29    1
    23     5    69    1
    24     5     6   ar
    25    48    26    1
    26    34    12    1
    27    69    81    1
    28    37    15    1
    29    12    29    1
    30    12    14    1
    31     7     6   ar
    32     7    22    1
    33    29    26    1
    34    29    51    1
    35    75    56    1
    36     6    41    1
    37    26    46    1
    38    26    23    1
    39    36    15    1
    40    15    14    1
    41    15    18    1
    42    14    22    1
    43    14    67    1
    44    74    56    1
    45    71    50    1
    46    56    59    1
    47    56    53    1
    48    22    23    1
    49    22    20    1
    50    76    59    1
    51    23    43    1
    52    23    40    1
    53    59    61    1
    54    32    10    1
    55    41    20    1
    56    18    52   ar
    57    18    19   ar
    58    79    64    1
    59    50    52   ar
    60    50    49   ar
    61    73    53    1
    62    28    10    1
    63    80    67    1
    64    52    44   ar
    65    20    19    1
    66    20    39    1
    67    53    49    1
    68    53    72    1
    69    61    62    2
    70    61    64    1
    71    19    42   ar
    72    10    31    1
    73    10     2    1
    74    62    77    1
    75    49    47   ar
    76    64    78    1
    77    64     2    1
    78    44    42   ar
    79    44    45   ar
    80    24     4    1
    81    42    66    1
    82     2     4    1
    83     2    13    1
    84    47    45   ar
    85    47    70    1
    86    45    68    1
    87     4    17    1
    88     4    21    1
