@<TRIPOS>MOLECULE
MOLECULE_47
 84 92 0 0 0
SMALL
USER_CHARGES

@<TRIPOS>ATOM
      1 C          -2.2430    2.9810   -6.0270 C.ar    1  LIG1       -0.0547
      2 C          -1.0660    2.2530   -5.7410 C.ar    1  LIG1       -0.0162
      3 C          -0.6590    2.0390   -4.4050 C.ar    1  LIG1        0.1588
      4 C          -1.4590    2.5430   -3.3630 C.ar    1  LIG1        0.1668
      5 C          -2.6490    3.1900   -3.6620 C.ar    1  LIG1        0.0137
      6 C          -3.0430    3.4900   -4.9800 C.ar    1  LIG1       -0.0411
      7 C          -4.2170    4.3760   -5.2140 C.3     1  LIG1       -0.0368
      8 C          -5.0050    4.7910   -3.9070 C.3     1  LIG1       -0.0432
      9 C          -4.0530    4.9570   -2.6560 C.3     1  LIG1        0.0720
     10 C          -3.0240    6.1220   -2.8190 C.3     1  LIG1        0.0031
     11 C          -1.8570    6.0030   -1.9160 C.ar    1  LIG1       -0.0126
     12 C          -1.4330    4.8230   -1.2950 C.ar    1  LIG1        0.0647
     13 C          -2.1310    3.5100   -1.4690 C.3     1  LIG1        0.1525
     14 C          -3.3640    3.5630   -2.4420 C.3     1  LIG1        0.0677
     15 C          -4.4630    2.4950   -2.1130 C.3     1  LIG1       -0.0518
     16 C          -5.6160    2.4660   -3.1590 C.3     1  LIG1       -0.0891
     17 N          -6.1190    3.8240   -3.5670 N.4     1  LIG1        0.3839
     18 C          -7.2590    3.7040   -4.5530 C.3     1  LIG1       -0.0872
     19 C          -7.8780    5.0480   -5.0280 C.3     1  LIG1       -0.0559
     20 C          -8.7410    5.0710   -6.2990 C.3     1  LIG1       -0.0517
     21 O          -1.2230    2.5230   -2.0230 O.3     1  LIG1       -0.4778
     22 N          -0.3210    5.1030   -0.5640 N.ar    1  LIG1       -0.3423
     23 C           0.4850    4.2050    0.2300 C.3     1  LIG1        0.0481
     24 C          -0.3210    3.5320    1.2910 C.ar    1  LIG1       -0.0278
     25 C          -0.3390    2.1200    1.4180 C.ar    1  LIG1       -0.0569
     26 C          -1.1530    1.4920    2.3800 C.ar    1  LIG1       -0.0614
     27 C          -1.9540    2.2660    3.2390 C.ar    1  LIG1       -0.0617
     28 C          -1.9270    3.6680    3.1450 C.ar    1  LIG1       -0.0614
     29 C          -1.1150    4.2940    2.1820 C.ar    1  LIG1       -0.0569
     30 C          -0.0530    6.4220   -0.6970 C.ar    1  LIG1        0.0133
     31 C          -0.9700    7.0150   -1.5560 C.ar    1  LIG1        0.0033
     32 C          -0.9740    8.3650   -1.9810 C.ar    1  LIG1       -0.0162
     33 C          -0.9170    9.4120   -1.0350 C.ar    1  LIG1       -0.0537
     34 C          -0.8980   10.7570   -1.4490 C.ar    1  LIG1       -0.0580
     35 C          -0.9350   11.0900   -2.8210 C.ar    1  LIG1       -0.0473
     36 C          -0.9230   12.5130   -3.2560 C.3     1  LIG1       -0.0279
     37 C          -1.0120   10.0430   -3.7680 C.ar    1  LIG1       -0.0580
     38 C          -1.0370    8.6960   -3.3530 C.ar    1  LIG1       -0.0537
     39 O          -4.8360    5.2890   -1.5000 O.3     1  LIG1       -0.3888
     40 O           0.4760    1.3590   -4.1300 O.3     1  LIG1       -0.5033
     41 C          -7.3360    5.6920   -6.3160 C.3     1  LIG1       -0.0517
     42 C          -2.3610   13.0840   -3.3730 C.3     1  LIG1       -0.0519
     43 C          -3.1420   13.0160   -2.0430 C.3     1  LIG1       -0.0650
     44 H          -2.5360    3.1530   -7.0620 H       1  LIG1        0.0622
     45 H          -0.4670    1.8520   -6.5590 H       1  LIG1        0.0655
     46 H          -3.7890    5.2900   -5.6270 H       1  LIG1        0.0298
     47 H          -4.8980    3.7730   -5.8150 H       1  LIG1        0.0298
     48 H          -5.4950    5.7390   -4.1290 H       1  LIG1        0.0126
     49 H          -2.6100    6.0420   -3.8240 H       1  LIG1        0.0341
     50 H          -3.5270    7.0370   -2.5080 H       1  LIG1        0.0341
     51 H          -2.4130    3.2250   -0.4550 H       1  LIG1        0.0809
     52 H          -4.9190    2.8090   -1.1740 H       1  LIG1        0.0258
     53 H          -3.9720    1.5240   -2.1830 H       1  LIG1        0.0258
     54 H          -6.4620    1.9850   -2.6680 H       1  LIG1        0.0059
     55 H          -5.1950    2.0350   -4.0670 H       1  LIG1        0.0059
     56 H          -6.5380    4.2700   -2.7640 H       1  LIG1       -0.0813
     57 H          -8.0470    3.1850   -4.0080 H       1  LIG1        0.0062
     58 H          -6.8160    3.2470   -5.4380 H       1  LIG1        0.0062
     59 H          -8.0260    5.3810   -4.0000 H       1  LIG1        0.0283
     60 H          -8.8410    4.1180   -6.8180 H       1  LIG1        0.0267
     61 H          -9.5700    5.7790   -6.2940 H       1  LIG1        0.0267
     62 H           0.8200    3.4260   -0.4540 H       1  LIG1        0.0541
     63 H           1.2150    4.8350    0.7390 H       1  LIG1        0.0541
     64 H           0.2840    1.5080    0.7650 H       1  LIG1        0.0621
     65 H          -1.1630    0.4050    2.4610 H       1  LIG1        0.0618
     66 H          -2.5940    1.7800    3.9750 H       1  LIG1        0.0618
     67 H          -2.5360    4.2700    3.8190 H       1  LIG1        0.0618
     68 H          -1.0990    5.3830    2.1250 H       1  LIG1        0.0621
     69 H           0.7710    6.9270   -0.1920 H       1  LIG1        0.0815
     70 H          -0.8880    9.1800    0.0290 H       1  LIG1        0.0624
     71 H          -0.8550   11.5470   -0.6990 H       1  LIG1        0.0620
     72 H          -0.4980   12.5090   -4.2600 H       1  LIG1        0.0313
     73 H          -0.4260   13.0600   -2.4560 H       1  LIG1        0.0313
     74 H          -1.0520   10.2760   -4.8320 H       1  LIG1        0.0620
     75 H          -1.1060    7.9050   -4.0990 H       1  LIG1        0.0624
     76 H          -5.3640    6.0700   -1.6840 H       1  LIG1        0.2101
     77 H           0.2820    0.6440   -3.5210 H       1  LIG1        0.2923
     78 H          -7.3020    6.7820   -6.3210 H       1  LIG1        0.0267
     79 H          -6.5740    5.1210   -6.8450 H       1  LIG1        0.0267
     80 H          -2.8910   12.4310   -4.0670 H       1  LIG1        0.0266
     81 H          -2.2480   14.1440   -3.6010 H       1  LIG1        0.0266
     82 H          -3.9050   13.7940   -2.0290 H       1  LIG1        0.0230
     83 H          -3.6180   12.0390   -1.9510 H       1  LIG1        0.0230
     84 H          -2.4560   13.1650   -1.2100 H       1  LIG1        0.0230
@<TRIPOS>BOND
     1    20    19    1
     2     1     2   ar
     3     1     6   ar
     4     2     3   ar
     5     7     6    1
     6     8     7    1
     7     6     5   ar
     8    19    18    1
     9    17    18    1
    10     3    40    1
    11     3     4   ar
    12     8    17    1
    13     8     9    1
    14     5     4   ar
    15    14     5    1
    16    17    16    1
    17     4    21    1
    18    16    15    1
    19    10     9    1
    20    10    11    1
    21    36    35    1
    22    34    35   ar
    23    34    33   ar
    24     9    14    1
    25     9    39    1
    26    35    37   ar
    27    14    15    1
    28    14    13    1
    29    33    32   ar
    30    13    21    1
    31    11    31   ar
    32    11    12   ar
    33    37    38   ar
    34    32    38   ar
    35    32    31    1
    36    31    30   ar
    37    13    12    1
    38    12    22   ar
    39    30    22   ar
    40    22    23    1
    41    23    24    1
    42    24    29   ar
    43    24    25   ar
    44    29    28   ar
    45    25    26   ar
    46    28    27   ar
    47    26    27   ar
    48    19    41    1
    49    41    20    1
    50    36    42    1
    51    42    43    1
    52     1    44    1
    53     2    45    1
    54     7    46    1
    55     7    47    1
    56     8    48    1
    57    10    49    1
    58    10    50    1
    59    13    51    1
    60    15    52    1
    61    15    53    1
    62    16    54    1
    63    16    55    1
    64    17    56    1
    65    18    57    1
    66    18    58    1
    67    19    59    1
    68    20    60    1
    69    20    61    1
    70    23    62    1
    71    23    63    1
    72    25    64    1
    73    26    65    1
    74    27    66    1
    75    28    67    1
    76    29    68    1
    77    30    69    1
    78    33    70    1
    79    34    71    1
    80    36    72    1
    81    36    73    1
    82    37    74    1
    83    38    75    1
    84    39    76    1
    85    40    77    1
    86    41    78    1
    87    41    79    1
    88    42    80    1
    89    42    81    1
    90    43    82    1
    91    43    83    1
    92    43    84    1
