@<TRIPOS>MOLECULE
MOLECULE_35
 79 87 0 0 0
SMALL
GASTEIGER

@<TRIPOS>ATOM
      1 C          -2.2152    2.8236   -6.1158 C.ar    1  LIG111     -0.0547
      2 C           1.1337   13.4868    0.4353 C.ar    1  LIG111     -0.0301
      3 C          -1.0572    2.1058   -5.7729 C.ar    1  LIG111     -0.0162
      4 C           0.1696   13.5162    1.4475 C.ar    1  LIG111     -0.0536
      5 C          -0.6752    1.9258   -4.4354 C.ar    1  LIG111      0.1588
      6 C          -1.5084    2.4516   -3.4457 C.ar    1  LIG111      0.1668
      7 C          -2.6692    3.1004   -3.8073 C.ar    1  LIG111      0.0137
      8 C          -3.0292    3.3759   -5.1193 C.ar    1  LIG111     -0.0411
      9 C          -4.2490    4.2717   -5.3707 C.3     1  LIG111     -0.0368
     10 C           0.4032   14.2365    2.6217 C.ar    1  LIG111     -0.0196
     11 C           1.5978   14.9389    2.8044 C.ar    1  LIG111      0.1201
     12 C          -4.9983    4.6941   -4.0536 C.3     1  LIG111     -0.0432
     13 C           2.5610   14.9166    1.7862 C.ar    1  LIG111     -0.0196
     14 C          -4.0238    4.8703   -2.8377 C.3     1  LIG111      0.0720
     15 C          -2.9351    5.9513   -3.1213 C.3     1  LIG111      0.0031
     16 C           2.3282   14.1938    0.6116 C.ar    1  LIG111     -0.0536
     17 H          -2.4806    2.9576   -7.1592 H       1  LIG111      0.0622
     18 C          -1.8401    5.8492   -2.0701 C.ar    1  LIG111     -0.0128
     19 C          -1.5175    4.6799   -1.3819 C.ar    1  LIG111      0.0622
     20 C          -2.2236    3.3387   -1.5447 C.3     1  LIG111      0.1523
     21 H          -0.4403    1.6823   -6.5587 H       1  LIG111      0.0655
     22 C          -3.4102    3.4708   -2.5603 C.3     1  LIG111      0.0677
     23 C          -4.5058    2.4154   -2.2604 C.3     1  LIG111     -0.0518
     24 H          -0.7642   12.9767    1.3234 H       1  LIG111      0.0622
     25 H          -4.9078    3.7632   -6.0850 H       1  LIG111      0.0298
     26 C          -5.5894    2.3952   -3.3693 C.3     1  LIG111     -0.0891
     27 H          -3.8623    5.1682   -5.8809 H       1  LIG111      0.0298
     28 H          -0.3502   14.2517    3.4028 H       1  LIG111      0.0654
     29 N          -6.0987    3.7629   -3.6547 N.4     1  LIG111      0.3839
     30 C          -7.2899    3.7267   -4.5539 C.3     1  LIG111     -0.0872
     31 O           1.7865   15.6407    4.0043 O.3     1  LIG111     -0.4951
     32 H          -5.4379    5.6896   -4.2341 H       1  LIG111      0.0126
     33 C          -7.8991    5.1335   -4.7950 C.3     1  LIG111     -0.0559
     34 H           3.4991   15.4507    1.8796 H       1  LIG111      0.0654
     35 C          -8.9080    5.2222   -5.9620 C.3     1  LIG111     -0.0517
     36 H          -3.3757    6.9597   -3.1184 H       1  LIG111      0.0341
     37 H          -2.4224    5.8049   -4.0811 H       1  LIG111      0.0341
     38 C          -7.5094    5.8611   -6.1011 C.3     1  LIG111     -0.0517
     39 H           3.0860   14.1855   -0.1653 H       1  LIG111      0.0622
     40 H          -2.5549    3.0368   -0.5395 H       1  LIG111      0.0809
     41 O          -1.2667    2.3795   -2.0802 O.3     1  LIG111     -0.4778
     42 N          -0.4882    4.9155   -0.5430 N.ar    1  LIG111     -0.3548
     43 H          -4.9777    2.6664   -1.2967 H       1  LIG111      0.0258
     44 C          -0.1469    6.2122   -0.6633 C.ar    1  LIG111      0.0471
     45 C           0.8619    6.9053    0.0033 C.ar    1  LIG111     -0.0371
     46 H          -4.0548    1.4135   -2.1659 H       1  LIG111      0.0258
     47 C           1.0193    8.2623   -0.3053 C.ar    1  LIG111     -0.0477
     48 H          -6.4036    1.7326   -3.0275 H       1  LIG111      0.0059
     49 C           0.1669    8.9126   -1.2149 C.ar    1  LIG111      0.0374
     50 C          -0.8235    8.1880   -1.8948 C.ar    1  LIG111     -0.0402
     51 H          -5.1740    1.9436   -4.2839 H       1  LIG111      0.0059
     52 C          -0.9675    6.8332   -1.5966 C.ar    1  LIG111      0.0040
     53 C           0.2909   10.3982   -1.4903 C.2     1  LIG111      0.2444
     54 N           0.7304   11.2538   -0.5370 N.am    1  LIG111     -0.3072
     55 H          -6.4919    4.1409   -2.7149 H       1  LIG111     -0.0813
     56 C           0.8572   12.6772   -0.8405 C.3     1  LIG111      0.0371
     57 H          -8.0989    3.1401   -4.0858 H       1  LIG111      0.0062
     58 H          -7.0608    3.2279   -5.5069 H       1  LIG111      0.0062
     59 H          -8.1549    5.7692   -3.9320 H       1  LIG111      0.0283
     60 H          -9.7493    5.9244   -5.8527 H       1  LIG111      0.0267
     61 H          -9.0899    4.3185   -6.5643 H       1  LIG111      0.0267
     62 H          -7.4662    6.9605   -6.0611 H       1  LIG111      0.0267
     63 H          -6.8148    5.3623   -6.7936 H       1  LIG111      0.0267
     64 H          -0.0438    4.2252    0.0801 H       1  LIG111      0.1657
     65 H           1.4986    6.4087    0.7279 H       1  LIG111      0.0638
     66 H           1.8293    8.8030    0.1710 H       1  LIG111      0.0626
     67 H          -1.4680    8.6586   -2.6291 H       1  LIG111      0.0632
     68 H           0.9656   10.9438    0.3849 H       1  LIG111      0.1493
     69 H          -0.0801   13.0589   -1.2759 H       1  LIG111      0.0512
     70 H           1.6609   12.8173   -1.5801 H       1  LIG111      0.0512
     71 H          -5.1927    6.0766   -1.7263 H       1  LIG111      0.2101
     72 H           0.6533    1.1936   -3.1789 H       1  LIG111      0.2923
     73 O          -0.0304   10.7937   -2.6000 O.2     1  LIG111     -0.2702
     74 O          -4.7511    5.2373   -1.6510 O.3     1  LIG111     -0.3888
     75 O           0.4996    1.2425   -4.1163 O.3     1  LIG111     -0.5033
     76 C           2.9936   16.3700    4.2768 C.3     1  LIG111      0.0788
     77 H           2.8959   16.8172    5.2768 H       1  LIG111      0.0660
     78 H           3.1379   17.1809    3.5467 H       1  LIG111      0.0660
     79 H           3.8669   15.7000    4.2798 H       1  LIG111      0.0660
@<TRIPOS>BOND
     1    17     1    1
     2    63    38    1
     3    61    35    1
     4    21     3    1
     5     1     3   ar
     6     1     8   ar
     7    38    62    1
     8    38    35    1
     9    38    33    1
    10    25     9    1
    11    35    60    1
    12    35    33    1
    13    27     9    1
    14     3     5   ar
    15    58    30    1
    16     9     8    1
    17     9    12    1
    18     8     7   ar
    19    33    30    1
    20    33    59    1
    21    30    57    1
    22    30    29    1
    23     5    75    1
    24     5     6   ar
    25    51    26    1
    26    32    12    1
    27    75    72    1
    28    37    15    1
    29    12    29    1
    30    12    14    1
    31     7     6   ar
    32     7    22    1
    33    29    26    1
    34    29    55    1
    35     6    41    1
    36    26    48    1
    37    26    23    1
    38    15    36    1
    39    15    14    1
    40    15    18    1
    41    14    22    1
    42    14    74    1
    43    67    50    1
    44    73    53    2
    45    22    23    1
    46    22    20    1
    47    23    46    1
    48    23    43    1
    49    41    20    1
    50    18    52   ar
    51    18    19   ar
    52    50    52   ar
    53    50    49   ar
    54    71    74    1
    55    52    44   ar
    56    70    56    1
    57    20    19    1
    58    20    40    1
    59    53    49    1
    60    53    54   am
    61    19    42   ar
    62    69    56    1
    63    49    47   ar
    64    56    54    1
    65    56     2    1
    66    44    42   ar
    67    44    45   ar
    68    42    64    1
    69    54    68    1
    70    47    45   ar
    71    47    66    1
    72    39    16    1
    73    45    65    1
    74     2    16   ar
    75     2     4   ar
    76    16    13   ar
    77    24     4    1
    78     4    10   ar
    79    13    34    1
    80    13    11   ar
    81    10    11   ar
    82    10    28    1
    83    11    31    1
    84    78    76    1
    85    31    76    1
    86    76    79    1
    87    76    77    1
