@<TRIPOS>MOLECULE
MOLECULE_23
 81 88 0 0 0
SMALL
GASTEIGER

@<TRIPOS>ATOM
      1 C          -2.2148    2.8229   -6.1161 C.ar    1  LIG111     -0.0547
      2 C           4.8635   12.2416   -0.3333 C.3     1  LIG111     -0.0424
      3 C          -1.0551    2.1078   -5.7732 C.ar    1  LIG111     -0.0162
      4 C           4.6660   13.7280    0.0777 C.3     1  LIG111     -0.0554
      5 C          -0.6733    1.9278   -4.4356 C.ar    1  LIG111      0.1588
      6 C          -1.5082    2.4510   -3.4457 C.ar    1  LIG111      0.1668
      7 C          -2.6708    3.0962   -3.8074 C.ar    1  LIG111      0.0137
      8 C          -3.0301    3.3730   -5.1195 C.ar    1  LIG111     -0.0411
      9 C          -4.2496    4.2694   -5.3709 C.3     1  LIG111     -0.0368
     10 C           5.8029   14.2116    1.0156 C.3     1  LIG111     -0.0653
     11 H          -2.4803    2.9568   -7.1595 H       1  LIG111      0.0622
     12 C          -4.9979    4.6937   -4.0539 C.3     1  LIG111     -0.0432
     13 H           5.8427   12.1559   -0.8326 H       1  LIG111      0.0271
     14 C          -4.0232    4.8653   -2.8382 C.3     1  LIG111      0.0720
     15 C          -2.9299    5.9415   -3.1217 C.3     1  LIG111      0.0031
     16 H           4.8676   11.6193    0.5771 H       1  LIG111      0.0271
     17 H          -0.4366    1.6866   -6.5590 H       1  LIG111      0.0655
     18 C          -1.8501    5.8430   -2.0550 C.ar    1  LIG111     -0.0128
     19 C          -1.5374    4.6753   -1.3596 C.ar    1  LIG111      0.0622
     20 C          -2.2310    3.3296   -1.5414 C.3     1  LIG111      0.1523
     21 H           3.7017   13.8471    0.5994 H       1  LIG111      0.0263
     22 C          -3.4142    3.4637   -2.5608 C.3     1  LIG111      0.0677
     23 C          -4.5128    2.4100   -2.2652 C.3     1  LIG111     -0.0518
     24 H           4.6500   14.3616   -0.8248 H       1  LIG111      0.0263
     25 H          -4.9098    3.7628   -6.0855 H       1  LIG111      0.0298
     26 C          -5.5969    2.3965   -3.3737 C.3     1  LIG111     -0.0891
     27 H          -3.8609    5.1657   -5.8799 H       1  LIG111      0.0298
     28 H           5.6412   15.2647    1.2955 H       1  LIG111      0.0230
     29 N          -6.1015    3.7670   -3.6537 N.4     1  LIG111      0.3839
     30 C          -7.2956    3.7408   -4.5489 C.3     1  LIG111     -0.0872
     31 H           6.7787   14.1296    0.5121 H       1  LIG111      0.0230
     32 H           5.8267   13.6049    1.9343 H       1  LIG111      0.0230
     33 C          -7.8993    5.1521   -4.7780 C.3     1  LIG111     -0.0559
     34 H          -5.4331    5.6912   -4.2330 H       1  LIG111      0.0126
     35 C          -8.9081    5.2564   -5.9435 C.3     1  LIG111     -0.0517
     36 H          -3.3685    6.9507   -3.1292 H       1  LIG111      0.0341
     37 H          -2.4079    5.7879   -4.0755 H       1  LIG111      0.0341
     38 C          -7.5057    5.8878   -6.0784 C.3     1  LIG111     -0.0517
     39 H          -2.5651    3.0147   -0.5410 H       1  LIG111      0.0809
     40 H          -4.9840    2.6592   -1.3007 H       1  LIG111      0.0258
     41 O          -1.2661    2.3798   -2.0802 O.3     1  LIG111     -0.4778
     42 N          -0.5320    4.9176   -0.4941 N.ar    1  LIG111     -0.3548
     43 H          -4.0643    1.4066   -2.1739 H       1  LIG111      0.0258
     44 C          -0.1946    6.2161   -0.6066 C.ar    1  LIG111      0.0470
     45 C           0.7852    6.9165    0.0953 C.ar    1  LIG111     -0.0375
     46 H          -6.4131    1.7354   -3.0340 H       1  LIG111      0.0059
     47 C           0.9453    8.2731   -0.2127 C.ar    1  LIG111     -0.0565
     48 H          -5.1833    1.9469   -4.2901 H       1  LIG111      0.0059
     49 C           0.1532    8.9010   -1.1890 C.ar    1  LIG111     -0.0431
     50 C          -0.8285    8.1791   -1.8832 C.ar    1  LIG111     -0.0490
     51 H          -6.4905    4.1437   -2.7116 H       1  LIG111     -0.0813
     52 C          -0.9871    6.8295   -1.5695 C.ar    1  LIG111      0.0036
     53 C           0.3689   10.3884   -1.5018 C.3     1  LIG111      0.0084
     54 H          -8.1055    3.1543   -4.0823 H       1  LIG111      0.0062
     55 H          -7.0706    3.2478   -5.5059 H       1  LIG111      0.0062
     56 C           1.4370   10.5309   -2.6171 C.3     1  LIG111      0.0818
     57 H          -8.1503    5.7825   -3.9096 H       1  LIG111      0.0283
     58 H          -9.7444    5.9638   -5.8293 H       1  LIG111      0.0267
     59 N           2.6454    9.7770   -2.2654 N.pl3   1  LIG111     -0.2375
     60 H          -9.0959    4.3588   -6.5530 H       1  LIG111      0.0267
     61 C           3.7038   10.2796   -1.6748 C.2     1  LIG111      0.2781
     62 N           4.7115    9.5335   -1.4353 N.2     1  LIG111     -0.1040
     63 H          -7.4529    6.9863   -6.0267 H       1  LIG111      0.0267
     64 C           3.7346   11.7543   -1.2869 C.3     1  LIG111      0.0501
     65 H          -6.8117    5.3899   -6.7723 H       1  LIG111      0.0267
     66 H          -0.1019    4.2309    0.1427 H       1  LIG111      0.1657
     67 O          -4.7496    5.2349   -1.6519 O.3     1  LIG111     -0.3888
     68 H           1.3955    6.4275    0.8470 H       1  LIG111      0.0638
     69 O           0.5030    1.2469   -4.1167 O.3     1  LIG111     -0.5033
     70 H           1.7021    8.8433    0.3166 H       1  LIG111      0.0621
     71 H          -1.4457    8.6466   -2.6424 H       1  LIG111      0.0627
     72 H           0.6872   10.9080   -0.5860 H       1  LIG111      0.0350
     73 H          -0.5771   10.8510   -1.8273 H       1  LIG111      0.0350
     74 H           1.6187   11.5912   -2.8480 H       1  LIG111      0.0727
     75 H           1.0200   10.0849   -3.5362 H       1  LIG111      0.0727
     76 H           2.6775    8.7775   -2.5297 H       1  LIG111      0.2910
     77 H           5.5565    9.8545   -0.9956 H       1  LIG111      0.3629
     78 H           2.7914   11.9995   -0.7790 H       1  LIG111      0.0387
     79 H           3.8027   12.3483   -2.2120 H       1  LIG111      0.0387
     80 H          -5.1866    6.0766   -1.7270 H       1  LIG111      0.2101
     81 H           0.6579    1.1991   -3.1795 H       1  LIG111      0.2923
@<TRIPOS>BOND
     1    11     1    1
     2    65    38    1
     3    17     3    1
     4    60    35    1
     5     1     3   ar
     6     1     8   ar
     7    25     9    1
     8    38    63    1
     9    38    35    1
    10    38    33    1
    11    35    58    1
    12    35    33    1
    13    27     9    1
    14     3     5   ar
    15    55    30    1
    16     9     8    1
    17     9    12    1
    18     8     7   ar
    19    33    30    1
    20    33    57    1
    21    30    54    1
    22    30    29    1
    23     5    69    1
    24     5     6   ar
    25    48    26    1
    26    34    12    1
    27    69    81    1
    28    37    15    1
    29    12    29    1
    30    12    14    1
    31     7     6   ar
    32     7    22    1
    33    29    26    1
    34    29    51    1
    35    75    56    1
    36     6    41    1
    37    26    46    1
    38    26    23    1
    39    36    15    1
    40    15    14    1
    41    15    18    1
    42    74    56    1
    43    14    22    1
    44    14    67    1
    45    71    50    1
    46    56    59    1
    47    56    53    1
    48    22    23    1
    49    22    20    1
    50    76    59    1
    51    59    61    1
    52    23    43    1
    53    23    40    1
    54    79    64    1
    55    41    20    1
    56    18    52   ar
    57    18    19   ar
    58    50    52   ar
    59    50    49   ar
    60    73    53    1
    61    80    67    1
    62    61    62    2
    63    61    64    1
    64    52    44   ar
    65    20    19    1
    66    20    39    1
    67    53    49    1
    68    53    72    1
    69    62    77    1
    70    19    42   ar
    71    64    78    1
    72    64     2    1
    73    49    47   ar
    74    13     2    1
    75    24     4    1
    76    44    42   ar
    77    44    45   ar
    78    42    66    1
    79     2     4    1
    80     2    16    1
    81    47    45   ar
    82    47    70    1
    83     4    21    1
    84     4    10    1
    85    45    68    1
    86    31    10    1
    87    10    28    1
    88    10    32    1
