@<TRIPOS>MOLECULE
MOLECULE_34
 84 92 0 0 0
SMALL
GASTEIGER

@<TRIPOS>ATOM
      1 C          -2.2144    2.8250   -6.1160 C.ar    1  LIG111     -0.0547
      2 C           0.7999   12.6972   -0.8082 C.3     1  LIG111      0.0119
      3 C          -1.0568    2.1066   -5.7731 C.ar    1  LIG111     -0.0162
      4 C           1.6039   13.4624    0.2776 C.3     1  LIG111     -0.0371
      5 C          -0.6761    1.9235   -4.4358 C.ar    1  LIG111      0.1588
      6 C          -1.5081    2.4509   -3.4456 C.ar    1  LIG111      0.1668
      7 C          -2.6693    3.0991   -3.8069 C.ar    1  LIG111      0.0137
      8 C          -3.0289    3.3754   -5.1190 C.ar    1  LIG111     -0.0411
      9 C          -4.2489    4.2704   -5.3705 C.3     1  LIG111     -0.0368
     10 C           1.6793   14.9834   -0.0300 C.3     1  LIG111     -0.0476
     11 C           2.5766   15.7351    0.9892 C.3     1  LIG111     -0.0276
     12 C          -4.9991    4.6928   -4.0539 C.3     1  LIG111     -0.0432
     13 C           2.0502   15.5476    2.4198 C.ar    1  LIG111     -0.0474
     14 C          -4.0268    4.8679   -2.8368 C.3     1  LIG111      0.0720
     15 C          -2.9410    5.9515   -3.1188 C.3     1  LIG111      0.0031
     16 C           2.6596   14.6360    3.2903 C.ar    1  LIG111     -0.0586
     17 C           2.1783   14.4716    4.5924 C.ar    1  LIG111     -0.0615
     18 C          -1.8506    5.8515   -2.0632 C.ar    1  LIG111     -0.0128
     19 C          -1.5246    4.6821   -1.3768 C.ar    1  LIG111      0.0622
     20 C          -2.2254    3.3382   -1.5443 C.3     1  LIG111      0.1523
     21 C           1.0814   15.2177    5.0320 C.ar    1  LIG111     -0.0617
     22 C          -3.4119    3.4687   -2.5604 C.3     1  LIG111      0.0677
     23 C          -4.5093    2.4147   -2.2606 C.3     1  LIG111     -0.0518
     24 C           0.4658   16.1258    4.1660 C.ar    1  LIG111     -0.0615
     25 C           0.9500   16.2896    2.8648 C.ar    1  LIG111     -0.0586
     26 C          -5.5932    2.3950   -3.3696 C.3     1  LIG111     -0.0891
     27 H          -2.4791    2.9610   -7.1594 H       1  LIG111      0.0622
     28 H           1.2992   12.8441   -1.7804 H       1  LIG111      0.0462
     29 N          -6.1009    3.7634   -3.6549 N.4     1  LIG111      0.3839
     30 C          -7.2907    3.7330   -4.5556 C.3     1  LIG111     -0.0872
     31 H          -0.2179   13.1151   -0.8717 H       1  LIG111      0.0462
     32 H          -0.4390    1.6852   -6.5591 H       1  LIG111      0.0655
     33 C          -7.8936    5.1425   -4.7975 C.3     1  LIG111     -0.0559
     34 H           2.6218   13.0420    0.3259 H       1  LIG111      0.0280
     35 C          -8.8968    5.2365   -5.9687 C.3     1  LIG111     -0.0517
     36 H           1.1161   13.3061    1.2536 H       1  LIG111      0.0280
     37 H          -4.9057    3.7602   -6.0856 H       1  LIG111      0.0298
     38 C          -7.4944    5.8682   -6.1019 C.3     1  LIG111     -0.0517
     39 H          -3.8626    5.1672   -5.8807 H       1  LIG111      0.0298
     40 H           0.6632   15.4110   -0.0102 H       1  LIG111      0.0269
     41 O          -1.2654    2.3816   -2.0800 O.3     1  LIG111     -0.4778
     42 N          -0.4989    4.9213   -0.5343 N.ar    1  LIG111     -0.3548
     43 H           2.0935   15.1333   -1.0409 H       1  LIG111      0.0269
     44 C          -0.1650    6.2207   -0.6491 C.ar    1  LIG111      0.0471
     45 C           0.8369    6.9188    0.0223 C.ar    1  LIG111     -0.0371
     46 H           2.5911   16.8109    0.7499 H       1  LIG111      0.0313
     47 C           0.9870    8.2775   -0.2833 C.ar    1  LIG111     -0.0477
     48 H           3.6119   15.3664    0.9094 H       1  LIG111      0.0313
     49 C           0.1310    8.9264   -1.1904 C.ar    1  LIG111      0.0374
     50 C          -0.8513    8.1962   -1.8760 C.ar    1  LIG111     -0.0402
     51 H          -5.4367    5.6890   -4.2340 H       1  LIG111      0.0126
     52 C          -0.9864    6.8395   -1.5830 C.ar    1  LIG111      0.0040
     53 C           0.2404   10.4147   -1.4591 C.2     1  LIG111      0.2441
     54 N           0.7052   11.2678   -0.5150 N.am    1  LIG111     -0.3113
     55 H          -3.3852    6.9582   -3.1170 H       1  LIG111      0.0341
     56 H          -2.4248    5.8060   -4.0771 H       1  LIG111      0.0341
     57 H           3.5099   14.0479    2.9600 H       1  LIG111      0.0620
     58 H           2.6570   13.7641    5.2627 H       1  LIG111      0.0618
     59 H          -2.5577    3.0338   -0.5401 H       1  LIG111      0.0809
     60 H           0.7086   15.0921    6.0440 H       1  LIG111      0.0618
     61 H          -4.9820    2.6673   -1.2977 H       1  LIG111      0.0258
     62 H          -4.0599    1.4121   -2.1642 H       1  LIG111      0.0258
     63 H          -0.3886   16.7040    4.5047 H       1  LIG111      0.0618
     64 H           0.4660   16.9971    2.1991 H       1  LIG111      0.0620
     65 H          -6.4086    1.7335   -3.0287 H       1  LIG111      0.0059
     66 H          -5.1780    1.9427   -4.2839 H       1  LIG111      0.0059
     67 H          -6.4947    4.1408   -2.7151 H       1  LIG111     -0.0813
     68 H          -8.1029    3.1480   -4.0910 H       1  LIG111      0.0062
     69 H          -7.0602    3.2355   -5.5088 H       1  LIG111      0.0062
     70 H          -8.1500    5.7797   -3.9356 H       1  LIG111      0.0283
     71 H          -9.7352    5.9428   -5.8639 H       1  LIG111      0.0267
     72 H          -9.0811    4.3316   -6.5685 H       1  LIG111      0.0267
     73 H          -7.4408    6.9670   -6.0574 H       1  LIG111      0.0267
     74 H          -6.7973    5.3652   -6.7888 H       1  LIG111      0.0267
     75 H          -0.0512    4.2315    0.0868 H       1  LIG111      0.1657
     76 H           1.4739    6.4248    0.7485 H       1  LIG111      0.0638
     77 H           1.7951    8.8200    0.1940 H       1  LIG111      0.0626
     78 O          -0.1170   10.8162   -2.5555 O.2     1  LIG111     -0.2702
     79 O          -4.7559    5.2318   -1.6503 O.3     1  LIG111     -0.3888
     80 H          -1.4968    8.6632   -2.6115 H       1  LIG111      0.0632
     81 O           0.4964    1.2354   -4.1184 O.3     1  LIG111     -0.5033
     82 H           0.9366   10.9563    0.4069 H       1  LIG111      0.1490
     83 H          -5.2013    6.0691   -1.7258 H       1  LIG111      0.2101
     84 H           0.6515    1.1845   -3.1812 H       1  LIG111      0.2923
@<TRIPOS>BOND
     1    27     1    1
     2    74    38    1
     3    72    35    1
     4    32     3    1
     5     1     3   ar
     6     1     8   ar
     7    38    73    1
     8    38    35    1
     9    38    33    1
    10    37     9    1
    11    35    71    1
    12    35    33    1
    13    39     9    1
    14     3     5   ar
    15    69    30    1
    16     9     8    1
    17     9    12    1
    18     8     7   ar
    19    33    30    1
    20    33    70    1
    21    30    68    1
    22    30    29    1
    23     5    81    1
    24     5     6   ar
    25    66    26    1
    26    51    12    1
    27    81    84    1
    28    56    15    1
    29    12    29    1
    30    12    14    1
    31     7     6   ar
    32     7    22    1
    33    29    26    1
    34    29    67    1
    35     6    41    1
    36    26    65    1
    37    26    23    1
    38    15    55    1
    39    15    14    1
    40    15    18    1
    41    14    22    1
    42    14    79    1
    43    80    50    1
    44    22    23    1
    45    22    20    1
    46    78    53    2
    47    23    62    1
    48    23    61    1
    49    41    20    1
    50    18    52   ar
    51    18    19   ar
    52    50    52   ar
    53    50    49   ar
    54    28     2    1
    55    83    79    1
    56    52    44   ar
    57    20    19    1
    58    20    59    1
    59    53    49    1
    60    53    54   am
    61    19    42   ar
    62    49    47   ar
    63    43    10    1
    64    31     2    1
    65     2    54    1
    66     2     4    1
    67    44    42   ar
    68    44    45   ar
    69    42    75    1
    70    54    82    1
    71    47    45   ar
    72    47    77    1
    73    10    40    1
    74    10     4    1
    75    10    11    1
    76    45    76    1
    77     4    34    1
    78     4    36    1
    79    46    11    1
    80    48    11    1
    81    11    13    1
    82    64    25    1
    83    13    25   ar
    84    13    16   ar
    85    25    24   ar
    86    57    16    1
    87    16    17   ar
    88    24    63    1
    89    24    21   ar
    90    17    21   ar
    91    17    58    1
    92    21    60    1
