@<TRIPOS>MOLECULE
MOLECULE_11
 72 79 0 0 0
SMALL
GASTEIGER

@<TRIPOS>ATOM
      1 C          -2.2153    2.8250   -6.1153 C.ar    1  LIG111     -0.0547
      2 H          -2.4803    2.9608   -7.1587 H       1  LIG111      0.0622
      3 C          -1.0583    2.1053   -5.7732 C.ar    1  LIG111     -0.0162
      4 H          -0.4426    1.6810   -6.5594 H       1  LIG111      0.0655
      5 C          -0.6759    1.9246   -4.4359 C.ar    1  LIG111      0.1588
      6 C          -1.5078    2.4513   -3.4455 C.ar    1  LIG111      0.1668
      7 C          -2.6695    3.0988   -3.8064 C.ar    1  LIG111      0.0137
      8 C          -3.0287    3.3769   -5.1182 C.ar    1  LIG111     -0.0411
      9 C          -4.2467    4.2753   -5.3689 C.3     1  LIG111     -0.0368
     10 H          -4.9048    3.7712   -6.0870 H       1  LIG111      0.0298
     11 H          -3.8569    5.1734   -5.8739 H       1  LIG111      0.0298
     12 C          -4.9983    4.6938   -4.0520 C.3     1  LIG111     -0.0432
     13 H          -5.4362    5.6904   -4.2295 H       1  LIG111      0.0126
     14 C          -4.0262    4.8651   -2.8340 C.3     1  LIG111      0.0720
     15 C          -2.9371    5.9463   -3.1129 C.3     1  LIG111      0.0031
     16 H          -3.3793    6.9540   -3.1152 H       1  LIG111      0.0341
     17 H          -2.4155    5.7987   -4.0678 H       1  LIG111      0.0341
     18 C          -1.8545    5.8468   -2.0494 C.ar    1  LIG111     -0.0128
     19 C          -1.5341    4.6774   -1.3604 C.ar    1  LIG111      0.0622
     20 C          -2.2281    3.3315   -1.5409 C.3     1  LIG111      0.1523
     21 H          -2.5615    3.0175   -0.5401 H       1  LIG111      0.0809
     22 C          -3.4126    3.4650   -2.5593 C.3     1  LIG111      0.0677
     23 C          -4.5094    2.4091   -2.2654 C.3     1  LIG111     -0.0518
     24 H          -4.9824    2.6568   -1.3014 H       1  LIG111      0.0258
     25 H          -4.0592    1.4064   -2.1739 H       1  LIG111      0.0258
     26 C          -5.5919    2.3938   -3.3757 C.3     1  LIG111     -0.0891
     27 H          -6.4071    1.7307   -3.0374 H       1  LIG111      0.0059
     28 H          -5.1760    1.9455   -4.2917 H       1  LIG111      0.0059
     29 N          -6.1001    3.7628   -3.6567 N.4     1  LIG111      0.3839
     30 C          -7.2906    3.7328   -4.5568 C.3     1  LIG111     -0.0872
     31 H          -8.1005    3.1442   -4.0926 H       1  LIG111      0.0062
     32 H          -7.0610    3.2393   -5.5124 H       1  LIG111      0.0062
     33 C          -7.8983    5.1417   -4.7897 C.3     1  LIG111     -0.0559
     34 H          -8.1582    5.7705   -3.9228 H       1  LIG111      0.0283
     35 C          -8.8981    5.2426   -5.9634 C.3     1  LIG111     -0.0517
     36 H          -9.7390    5.9453   -5.8546 H       1  LIG111      0.0267
     37 H          -9.0761    4.3455   -6.5765 H       1  LIG111      0.0267
     38 C          -7.4978    5.8811   -6.0859 C.3     1  LIG111     -0.0517
     39 H          -7.4522    6.9800   -6.0337 H       1  LIG111      0.0267
     40 H          -6.7971    5.3879   -6.7763 H       1  LIG111      0.0267
     41 O          -1.2643    2.3809   -2.0801 O.3     1  LIG111     -0.4778
     42 N          -0.5218    4.9189   -0.5024 N.ar    1  LIG111     -0.3548
     43 H          -0.0834    4.2303    0.1268 H       1  LIG111      0.1657
     44 C          -0.1906    6.2195   -0.6104 C.ar    1  LIG111      0.0470
     45 C           0.7923    6.9211    0.0862 C.ar    1  LIG111     -0.0375
     46 H           1.4149    6.4297    0.8263 H       1  LIG111      0.0638
     47 C           0.9392    8.2818   -0.2109 C.ar    1  LIG111     -0.0565
     48 H           1.6961    8.8531    0.3170 H       1  LIG111      0.0621
     49 C           0.1327    8.9125   -1.1735 C.ar    1  LIG111     -0.0437
     50 C          -0.8478    8.1879   -1.8665 C.ar    1  LIG111     -0.0490
     51 H          -1.4740    8.6560   -2.6180 H       1  LIG111      0.0627
     52 C          -0.9943    6.8348   -1.5623 C.ar    1  LIG111      0.0036
     53 C           0.3277   10.4052   -1.4758 C.3     1  LIG111      0.0031
     54 H           0.6442   10.9236   -0.5586 H       1  LIG111      0.0344
     55 H          -0.6256   10.8570   -1.7949 H       1  LIG111      0.0344
     56 C           1.3834   10.5577   -2.6013 C.3     1  LIG111      0.0685
     57 H           1.5361   11.6088   -2.8910 H       1  LIG111      0.0658
     58 H           0.9743   10.0591   -3.4972 H       1  LIG111      0.0658
     59 N           2.6309    9.8852   -2.2245 N.pl3   1  LIG111     -0.2784
     60 H           2.7978    8.9525   -2.6381 H       1  LIG111      0.2578
     61 C           3.5270   10.3898   -1.4291 C.cat   1  LIG111      0.3410
     62 N           4.5937    9.6915   -1.1753 N.pl3   1  LIG111     -0.2919
     63 H           5.3306   10.0512   -0.5498 H       1  LIG111      0.2545
     64 N           3.4152   11.5575   -0.8687 N.pl3   1  LIG111     -0.2919
     65 H           4.1522   11.9158   -0.2428 H       1  LIG111      0.2545
     66 H           2.6001   12.1603   -1.0252 H       1  LIG111      0.2545
     67 O          -4.7559    5.2287   -1.6478 O.3     1  LIG111     -0.3888
     68 H          -5.1968    6.0685   -1.7213 H       1  LIG111      0.2101
     69 O           0.4980    1.2392   -4.1178 O.3     1  LIG111     -0.5033
     70 H           0.6476    1.1810   -3.1803 H       1  LIG111      0.2923
     71 H          -6.4935    4.1377   -2.7158 H       1  LIG111     -0.0813
     72 H           4.7337    8.7578   -1.5902 H       1  LIG111      0.2545
@<TRIPOS>BOND
     1     2     1    1
     2    40    38    1
     3    37    35    1
     4     4     3    1
     5     1     3   ar
     6     1     8   ar
     7    10     9    1
     8    38    39    1
     9    38    35    1
    10    38    33    1
    11    35    36    1
    12    35    33    1
    13    11     9    1
    14     3     5   ar
    15    32    30    1
    16     9     8    1
    17     9    12    1
    18     8     7   ar
    19    33    30    1
    20    33    34    1
    21    30    31    1
    22    30    29    1
    23     5    69    1
    24     5     6   ar
    25    28    26    1
    26    13    12    1
    27    69    70    1
    28    17    15    1
    29    12    29    1
    30    12    14    1
    31     7     6   ar
    32     7    22    1
    33    29    26    1
    34    29    71    1
    35    58    56    1
    36     6    41    1
    37    26    27    1
    38    26    23    1
    39    16    15    1
    40    15    14    1
    41    15    18    1
    42    57    56    1
    43    14    22    1
    44    14    67    1
    45    60    59    1
    46    51    50    1
    47    56    59    1
    48    56    53    1
    49    22    23    1
    50    22    20    1
    51    23    25    1
    52    23    24    1
    53    59    61    1
    54    41    20    1
    55    18    52   ar
    56    18    19   ar
    57    50    52   ar
    58    50    49   ar
    59    55    53    1
    60    68    67    1
    61    72    62    1
    62    52    44   ar
    63    20    19    1
    64    20    21    1
    65    53    49    1
    66    53    54    1
    67    61    62    2
    68    61    64    1
    69    19    42   ar
    70    62    63    1
    71    49    47   ar
    72    66    64    1
    73    64    65    1
    74    44    42   ar
    75    44    45   ar
    76    42    43    1
    77    47    45   ar
    78    47    48    1
    79    45    46    1
