@<TRIPOS>MOLECULE
MOLECULE_15
 85 93 0 0 0
SMALL
GASTEIGER

@<TRIPOS>ATOM
      1 C          -2.2157    2.8244   -6.1151 C.ar    1  LIG111     -0.0547
      2 C           0.3503   13.0368   -1.5923 C.3     1  LIG111      0.0019
      3 C          -1.0578    2.1060   -5.7733 C.ar    1  LIG111     -0.0162
      4 H          -2.4815    2.9598   -7.1583 H       1  LIG111      0.0622
      5 C          -0.6748    1.9260   -4.4361 C.ar    1  LIG111      0.1588
      6 C          -1.5076    2.4511   -3.4455 C.ar    1  LIG111      0.1668
      7 C          -2.6705    3.0965   -3.8059 C.ar    1  LIG111      0.0137
      8 C          -3.0290    3.3760   -5.1176 C.ar    1  LIG111     -0.0411
      9 C          -4.2455    4.2765   -5.3679 C.3     1  LIG111     -0.0368
     10 C           0.8250   14.4979   -1.8152 C.3     1  LIG111     -0.0284
     11 H          -0.4420    1.6821   -6.5597 H       1  LIG111      0.0655
     12 C          -4.9977    4.6942   -4.0512 C.3     1  LIG111     -0.0432
     13 H          -4.9041    3.7761   -6.0883 H       1  LIG111      0.0298
     14 C          -4.0267    4.8615   -2.8322 C.3     1  LIG111      0.0720
     15 C          -2.9348    5.9408   -3.1070 C.3     1  LIG111      0.0031
     16 H          -3.8524    5.1751   -5.8694 H       1  LIG111      0.0298
     17 H          -5.4337    5.6919   -4.2278 H       1  LIG111      0.0126
     18 C          -1.8670    5.8446   -2.0283 C.ar    1  LIG111     -0.0127
     19 C          -1.5482    4.6729   -1.3424 C.ar    1  LIG111      0.0622
     20 C          -2.2325    3.3242   -1.5388 C.3     1  LIG111      0.1523
     21 H          -3.3763    6.9487   -3.1193 H       1  LIG111      0.0341
     22 C          -3.4154    3.4601   -2.5590 C.3     1  LIG111      0.0677
     23 C          -4.5139    2.4047   -2.2691 C.3     1  LIG111     -0.0518
     24 H          -2.4035    5.7873   -4.0558 H       1  LIG111      0.0341
     25 H          -2.5679    3.0000   -0.5419 H       1  LIG111      0.0809
     26 C          -5.5958    2.3939   -3.3802 C.3     1  LIG111     -0.0891
     27 H          -4.9877    2.6503   -1.3049 H       1  LIG111      0.0258
     28 H          -4.0650    1.4012   -2.1800 H       1  LIG111      0.0258
     29 N          -6.1012    3.7648   -3.6575 N.4     1  LIG111      0.3839
     30 C          -7.2926    3.7405   -4.5566 C.3     1  LIG111     -0.0872
     31 H          -6.4123    1.7312   -3.0444 H       1  LIG111      0.0059
     32 H          -5.1799    1.9475   -4.2970 H       1  LIG111      0.0059
     33 C          -7.8966    5.1520   -4.7835 C.3     1  LIG111     -0.0559
     34 H          -6.4935    4.1377   -2.7153 H       1  LIG111     -0.0813
     35 C          -8.9038    5.2580   -5.9503 C.3     1  LIG111     -0.0517
     36 H          -8.1034    3.1519   -4.0941 H       1  LIG111      0.0062
     37 H          -7.0641    3.2503   -5.5143 H       1  LIG111      0.0062
     38 C          -7.5017    5.8910   -6.0816 C.3     1  LIG111     -0.0517
     39 H          -8.1495    5.7802   -3.9142 H       1  LIG111      0.0283
     40 H          -9.7408    5.9645   -5.8361 H       1  LIG111      0.0267
     41 O          -1.2633    2.3807   -2.0804 O.3     1  LIG111     -0.4778
     42 N          -0.5498    4.9157   -0.4688 N.ar    1  LIG111     -0.3548
     43 H          -9.0897    4.3617   -6.5622 H       1  LIG111      0.0267
     44 C          -0.2305    6.2208   -0.5586 C.ar    1  LIG111      0.0471
     45 C           0.7313    6.9251    0.1650 C.ar    1  LIG111     -0.0360
     46 H          -7.4514    6.9897   -6.0287 H       1  LIG111      0.0267
     47 C           0.8637    8.2917   -0.1107 C.ar    1  LIG111     -0.0388
     48 H          -6.8075    5.3956   -6.7771 H       1  LIG111      0.0267
     49 C           0.0724    8.9181   -1.0876 C.ar    1  LIG111      0.0302
     50 C          -0.8861    8.1939   -1.8086 C.ar    1  LIG111     -0.0313
     51 H          -0.1160    4.2261    0.1624 H       1  LIG111      0.1657
     52 C          -1.0241    6.8365   -1.5195 C.ar    1  LIG111      0.0050
     53 N           0.2218   10.2428   -1.3287 N.pl3   1  LIG111     -0.3101
     54 H           1.3472    6.4322    0.9097 H       1  LIG111      0.0639
     55 C           1.2945   10.7751   -1.8891 C.3     1  LIG111      0.1895
     56 N           1.3780   12.0873   -2.0311 N.3     1  LIG111     -0.2793
     57 H           1.5914    8.8775    0.4419 H       1  LIG111      0.0637
     58 C          -0.2537   15.5480   -2.1610 C.3     1  LIG111     -0.0488
     59 H          -1.4987    8.6717   -2.5652 H       1  LIG111      0.0643
     60 H          -0.5702   10.8275   -1.0384 H       1  LIG111      0.1492
     61 C           0.6904   15.0187   -3.2631 C.3     1  LIG111     -0.0488
     62 C           3.5301   10.4273   -2.9097 C.3     1  LIG111     -0.0012
     63 H           2.2028   12.5051   -2.4733 H       1  LIG111      0.1253
     64 C           3.3362   10.7470   -4.4179 C.3     1  LIG111     -0.0432
     65 C           4.6599   11.2262   -5.0684 C.3     1  LIG111     -0.0641
     66 H           4.5034   11.4351   -6.1386 H       1  LIG111      0.0230
     67 H          -0.5854   12.8582   -2.1464 H       1  LIG111      0.0428
     68 H           0.1688   12.9470   -0.5094 H       1  LIG111      0.0428
     69 H           1.7115   14.8682   -1.2750 H       1  LIG111      0.0313
     70 H          -0.0723   16.5772   -1.8143 H       1  LIG111      0.0268
     71 H          -1.3029   15.2181   -2.2093 H       1  LIG111      0.0268
     72 H           0.2419   14.3493   -4.0136 H       1  LIG111      0.0268
     73 N           2.2668    9.9792   -2.3080 N.3     1  LIG111     -0.2796
     74 H           1.4631   15.7180   -3.6190 H       1  LIG111      0.0268
     75 O          -4.7573    5.2249   -1.6465 O.3     1  LIG111     -0.3888
     76 H           2.1640    8.9581   -2.2169 H       1  LIG111      0.1253
     77 O           0.5007    1.2429   -4.1184 O.3     1  LIG111     -0.5033
     78 H          -5.1949    6.0665   -1.7190 H       1  LIG111      0.2101
     79 H           0.6514    1.1862   -3.1810 H       1  LIG111      0.2923
     80 H           4.0031   11.2499   -2.3515 H       1  LIG111      0.0425
     81 H           4.2546    9.5959   -2.8529 H       1  LIG111      0.0425
     82 H           2.5683   11.5226   -4.5613 H       1  LIG111      0.0275
     83 H           2.9864    9.8358   -4.9315 H       1  LIG111      0.0275
     84 H           5.4385   10.4534   -4.9728 H       1  LIG111      0.0230
     85 H           5.0131   12.1476   -4.5794 H       1  LIG111      0.0230
@<TRIPOS>BOND
     1     4     1    1
     2    48    38    1
     3    43    35    1
     4    11     3    1
     5    66    65    1
     6     1     3   ar
     7     1     8   ar
     8    13     9    1
     9    38    46    1
    10    38    35    1
    11    38    33    1
    12    35    40    1
    13    35    33    1
    14    16     9    1
    15     3     5   ar
    16    37    30    1
    17     9     8    1
    18     9    12    1
    19     8     7   ar
    20    65    84    1
    21    65    85    1
    22    65    64    1
    23    83    64    1
    24    33    30    1
    25    33    39    1
    26    82    64    1
    27    30    36    1
    28    30    29    1
    29     5    77    1
    30     5     6   ar
    31    64    62    1
    32    32    26    1
    33    17    12    1
    34    77    79    1
    35    24    15    1
    36    12    29    1
    37    12    14    1
    38    72    61    1
    39     7     6   ar
    40     7    22    1
    41    29    26    1
    42    29    34    1
    43    74    61    1
    44     6    41    1
    45    26    31    1
    46    26    23    1
    47    61    58    1
    48    61    10    1
    49    21    15    1
    50    15    14    1
    51    15    18    1
    52    62    81    1
    53    62    80    1
    54    62    73    1
    55    14    22    1
    56    14    75    1
    57    59    50    1
    58    22    23    1
    59    22    20    1
    60    63    56    1
    61    73    76    1
    62    73    55    1
    63    23    28    1
    64    23    27    1
    65    71    58    1
    66    58    10    1
    67    58    70    1
    68    67     2    1
    69    41    20    1
    70    56    55    1
    71    56     2    1
    72    18    52   ar
    73    18    19   ar
    74    55    53    1
    75    10     2    1
    76    10    69    1
    77    50    52   ar
    78    50    49   ar
    79    78    75    1
    80     2    68    1
    81    20    19    1
    82    20    25    1
    83    52    44   ar
    84    19    42   ar
    85    53    49    1
    86    53    60    1
    87    49    47   ar
    88    44    42   ar
    89    44    45   ar
    90    42    51    1
    91    47    45   ar
    92    47    57    1
    93    45    54    1
