@<TRIPOS>MOLECULE
04
 44 47 0 0 0
SMALL
GASTEIGER

@<TRIPOS>ATOM
      1 ****        2.3752   -0.9799   -1.8021 C.3     1  WATER21111   -0.0004
      2 ****        3.8594   -1.2086   -1.4660 C.3     1  WATER21111   -0.0132
      3 ****        4.5861    0.0634   -1.0047 C.3     1  WATER21111   -0.0112
      4 ****       -0.1974    3.5114   -0.8075 O.2     1  WATER21111   -0.2847
      5 ****        3.7996    0.8786    0.0368 C.3     1  WATER21111    0.0285
      6 C5          2.3276    1.0411   -0.2925 C.2     1  WATER21111   -0.0626
      7 C6          1.7127    2.2417   -0.1863 C.1     1  WATER21111   -0.1303
      8 C7          0.2543    2.4290   -0.4555 C.1     1  WATER21111    0.2621
      9 ****       -0.5829    1.1484   -0.2399 C.3     1  WATER21111   -0.0428
     10 ****        0.0794    0.0095   -1.0994 C.3     1  WATER21111   -0.0206
     11 ****        1.5796   -0.2293   -0.6968 C.3     1  WATER21111    0.0024
     12 ****       -0.7348   -1.3176   -1.1127 C.3     1  WATER21111   -0.0022
     13 ****       -2.2725   -1.1953   -1.1957 C.3     1  WATER21111    0.0214
     14 ****       -2.8466   -0.1240   -0.2338 C.3     1  WATER21111   -0.1210
     15 ****       -2.0971    1.2292   -0.5539 C.3     1  WATER21111   -0.0159
     16 ****       -3.0078    2.3368    0.0383 C.3     1  WATER21111   -0.0010
     17 ****       -4.4499    1.8096   -0.1474 C.3     1  WATER21111   -0.0522
     18 ****       -4.3237    0.3101   -0.4652 C.2     1  WATER21111    0.2333
     19 ****       -2.7781   -0.6251    1.2383 C.3     1  WATER21111    0.0538
     20 H20         1.5739   -0.8798    0.2160 H       1  WATER21111    0.0231
     21 ****       -5.2367   -0.4114   -0.8300 O.2     1  WATER21111   -0.2734
     22 ****        2.3020   -0.4245   -2.7648 H       1  WATER21111    0.0113
     23 ****        1.9170   -1.9775   -1.9858 H       1  WATER21111    0.0090
     24 ****        3.9502   -1.9972   -0.6845 H       1  WATER21111    0.0080
     25 ****        4.3726   -1.6149   -2.3670 H       1  WATER21111    0.0111
     26 ****        4.2920    1.8715    0.1469 H       1  WATER21111    0.0135
     27 ****        4.8061    0.7077   -1.8865 H       1  WATER21111    0.0109
     28 ****        2.2567    3.1433    0.1064 H       1  WATER21111    0.0794
     29 ****       -0.4635    0.9163    0.8469 H       1  WATER21111    0.0323
     30 ****        0.0784    0.3782   -2.1573 H       1  WATER21111    0.0184
     31 ****       -0.4153   -1.9175   -1.9961 H       1  WATER21111    0.0088
     32 ****       -0.4751   -1.9336   -0.2222 H       1  WATER21111    0.0072
     33 ****       -2.5648   -0.9619   -2.2449 H       1  WATER21111    0.0124
     34 ****       -2.7153   -2.1940   -0.9823 H       1  WATER21111    0.0185
     35 ****       -2.1619    1.3865   -1.6648 H       1  WATER21111    0.0187
     36 ****       -2.8827    3.3014   -0.4942 H       1  WATER21111    0.0338
     37 ****       -2.7887    2.5398    1.1073 H       1  WATER21111    0.0145
     38 ****       -5.0632    1.9629    0.7653 H       1  WATER21111    0.0353
     39 ****       -4.9685    2.3423   -0.9724 H       1  WATER21111    0.0379
     40 ****       -3.3985   -1.5362    1.3685 H       1  WATER21111    0.0063
     41 ****       -1.7513   -0.8876    1.5591 H       1  WATER21111   -0.0018
     42 ****       -3.1510    0.1286    1.9608 H       1  WATER21111   -0.0037
     43 ****        3.8814    0.3912    1.0373 H       1  WATER21111    0.0145
     44 ****        5.5753   -0.2135   -0.5753 H       1  WATER21111    0.0105
@<TRIPOS>BOND
     1     1    22    1
     2     1     2    1
     3     2    25    1
     4     2     3    1
     5     3     5    1
     6     5    26    1
     7     5     6    1
     8     6    11    1
     9    11    20    1
    10     1    11    1
    11    10    11    1
    12    10    12    1
    13    12    31    1
    14    12    13    1
    15    13    14    1
    16    14    15    1
    17    15    16    1
    18    16    37    1
    19    16    36    1
    20    16    17    1
    21    17    39    1
    22    17    18    1
    23    14    18    1
    24    18    21    2
    25    17    38    1
    26     9    15    1
    27     9    29    1
    28     8     9    1
    29     8     4    2
    30     7     8    2
    31     6     7    2
    32     7    28    1
    33     9    10    1
    34    15    35    1
    35    14    19    1
    36    19    40    1
    37    19    41    1
    38    19    42    1
    39    13    33    1
    40    13    34    1
    41    12    32    1
    42    10    30    1
    43     5    43    1
    44     3    27    1
    45     3    44    1
    46     2    24    1
    47     1    23    1
