@<TRIPOS>MOLECULE
08
 42 45 0 0 0
SMALL
GASTEIGER

@<TRIPOS>ATOM
      1 ****        2.3904   -1.0213   -1.7656 C.3     1  WATER21111   -0.0010
      2 ****        3.8498   -1.2844   -1.3418 C.3     1  WATER21111    0.0162
      3 C3          4.5011   -0.0951   -0.6961 C.2     1  WATER21111   -0.0711
      4 ****       -0.2504    3.5565   -0.6262 O.2     1  WATER21111   -0.2870
      5 C5          3.8067    0.9765   -0.2584 C.1     1  WATER21111   -0.0663
      6 C5          2.3422    1.0983   -0.3989 C.1     1  WATER21111   -0.0227
      7 C6          1.7126    2.2875   -0.2305 C.1     1  WATER21111   -0.1292
      8 C7          0.2373    2.4569   -0.3929 C.1     1  WATER21111    0.2613
      9 ****       -0.5767    1.1523   -0.2325 C.3     1  WATER21111   -0.0424
     10 ****        0.0900    0.0583   -1.1478 C.3     1  WATER21111   -0.0191
     11 ****        1.5825   -0.1895   -0.7284 C.3     1  WATER21111   -0.0002
     12 ****       -0.7196   -1.2683   -1.2397 C.3     1  WATER21111   -0.0023
     13 ****       -2.2591   -1.1551   -1.2942 C.3     1  WATER21111    0.0215
     14 ****       -2.8278   -0.1452   -0.2657 C.3     1  WATER21111   -0.1211
     15 ****       -2.0962    1.2311   -0.5230 C.3     1  WATER21111   -0.0154
     16 ****       -3.0112    2.2952    0.1398 C.3     1  WATER21111   -0.0008
     17 ****       -4.4503    1.7617   -0.0502 C.3     1  WATER21111   -0.0525
     18 ****       -4.3131    0.2837   -0.4512 C.2     1  WATER21111    0.2333
     19 ****       -2.7308   -0.7256    1.1754 C.3     1  WATER21111    0.0538
     20 H20         1.5600   -0.7782    0.2258 H       1  WATER21111    0.0238
     21 ****       -5.2237   -0.4272   -0.8420 O.2     1  WATER21111   -0.2736
     22 ****        2.3847   -0.5048   -2.7519 H       1  WATER21111    0.0128
     23 ****        1.9055   -2.0085   -1.9297 H       1  WATER21111    0.0100
     24 ****        3.8930   -2.1464   -0.6354 H       1  WATER21111    0.0153
     25 ****        4.4372   -1.5914   -2.2373 H       1  WATER21111    0.0157
     26 ****        4.3282    1.8107    0.2175 H       1  WATER21111    0.0619
     27 ****        2.2675    3.1945    0.0224 H       1  WATER21111    0.0794
     28 ****       -0.4411    0.8722    0.8415 H       1  WATER21111    0.0324
     29 ****        0.1040    0.4784   -2.1861 H       1  WATER21111    0.0187
     30 ****       -0.4087   -1.8041   -2.1667 H       1  WATER21111    0.0083
     31 ****       -0.4444   -1.9417   -0.3964 H       1  WATER21111    0.0071
     32 ****       -2.5688   -0.8662   -2.3245 H       1  WATER21111    0.0123
     33 ****       -2.6905   -2.1683   -1.1315 H       1  WATER21111    0.0184
     34 ****       -2.1765    1.4464   -1.6231 H       1  WATER21111    0.0182
     35 ****       -2.9073    3.2877   -0.3438 H       1  WATER21111    0.0343
     36 ****       -2.7771    2.4446    1.2144 H       1  WATER21111    0.0149
     37 ****       -5.0485    1.8578    0.8803 H       1  WATER21111    0.0353
     38 ****       -4.9890    2.3324   -0.8359 H       1  WATER21111    0.0378
     39 ****       -3.3577   -1.6366    1.2706 H       1  WATER21111    0.0062
     40 ****       -1.6998   -1.0156    1.4568 H       1  WATER21111   -0.0018
     41 ****       -3.0779   -0.0089    1.9467 H       1  WATER21111   -0.0034
     42 ****        5.5859   -0.1475   -0.5836 H       1  WATER21111    0.0610
@<TRIPOS>BOND
     1     1    11    1
     2    11    20    1
     3     6    11    1
     4     5     6    2
     5     3     5    2
     6     3    42    1
     7     2     3    1
     8     2    24    1
     9     2    25    1
    10     1     2    1
    11     5    26    1
    12     6     7    2
    13     7    27    1
    14     7     8    2
    15     8     4    2
    16     8     9    1
    17     9    28    1
    18     9    15    1
    19    14    15    1
    20    14    18    1
    21    17    18    1
    22    17    38    1
    23    17    37    1
    24    16    17    1
    25    16    36    1
    26    16    35    1
    27    15    16    1
    28    18    21    2
    29    14    19    1
    30    19    39    1
    31    19    40    1
    32    19    41    1
    33    13    14    1
    34    13    33    1
    35    12    13    1
    36    12    31    1
    37    12    30    1
    38    10    12    1
    39    10    11    1
    40    10    29    1
    41     9    10    1
    42    13    32    1
    43    15    34    1
    44     1    23    1
    45     1    22    1
