@<TRIPOS>MOLECULE
14
 47 50 0 0 0
SMALL
GASTEIGER

@<TRIPOS>ATOM
      1 ****        2.3130   -1.2089   -1.4674 C.3     1  WATER21111    0.0075
      2 ****        3.8502   -1.2339   -1.4950 C.3     1  WATER21111   -0.0133
      3 ****        4.4699    0.1669   -1.5408 C.3     1  WATER21111   -0.0106
      4 ****       -0.2465    3.4099    0.5137 O.2     1  WATER21111   -0.2923
      5 ****        3.8717    1.1256   -0.5009 C.3     1  WATER21111    0.0274
      6 C5          2.3603    1.0762   -0.3530 C.2     1  WATER21111   -0.0486
      7 C6          1.6885    2.2311   -0.1278 C.1     1  WATER21111   -0.1346
      8 C7          0.2271    2.3363    0.1540 C.1     1  WATER21111    0.2621
      9 ****       -0.6134    1.0426    0.0631 C.3     1  WATER21111   -0.0405
     10 ****        0.1221   -0.0347   -0.8189 C.3     1  WATER21111   -0.0122
     11 ****        1.6368   -0.2837   -0.3926 C.3     1  WATER21111   -0.0300
     12 ****       -0.7175   -1.3347   -0.9985 C.3     1  WATER21111   -0.0034
     13 ****       -2.2206   -1.1506   -1.3067 C.3     1  WATER21111    0.0202
     14 ****       -2.9052   -0.1146   -0.3802 C.3     1  WATER21111   -0.1204
     15 ****       -2.0618    1.2180   -0.4756 C.3     1  WATER21111   -0.0152
     16 ****       -3.0252    2.3267    0.0270 C.3     1  WATER21111    0.0021
     17 ****       -4.4312    1.8812   -0.4382 C.3     1  WATER21111   -0.0539
     18 C18        -4.3063    0.3992   -0.8254 C.2     1  WATER21111    0.2328
     19 ****       -3.1047   -0.7091    1.0443 C.3     1  WATER21111    0.0539
     20 ****        1.7640   -0.9356    1.0174 C.3     1  WATER21111    0.0479
     21 ****        1.9682   -0.9063   -2.4834 H       1  WATER21111    0.0077
     22 ****        1.9700   -2.2589   -1.3261 H       1  WATER21111    0.0083
     23 ****        4.2486   -1.7987   -0.6223 H       1  WATER21111    0.0093
     24 ****        4.1771   -1.8077   -2.3927 H       1  WATER21111    0.0105
     25 ****        4.2001    2.1578   -0.7645 H       1  WATER21111    0.0136
     26 ****        4.3459    0.5999   -2.5598 H       1  WATER21111    0.0106
     27 ****        2.2187    3.1893   -0.1175 H       1  WATER21111    0.0769
     28 ****        1.2845   -1.9334    1.0626 H       1  WATER21111    0.0005
     29 O30        -5.1695   -0.2582   -1.3822 O.2     1  WATER21111   -0.2736
     30 ****       -0.6705    0.6850    1.1198 H       1  WATER21111    0.0365
     31 ****        0.1854    0.4127   -1.8464 H       1  WATER21111    0.0129
     32 ****       -0.2988   -1.9200   -1.8492 H       1  WATER21111    0.0085
     33 ****       -0.6213   -1.9913   -0.1061 H       1  WATER21111    0.0085
     34 ****       -2.3419   -0.8503   -2.3725 H       1  WATER21111    0.0118
     35 ****       -2.7182   -2.1430   -1.2229 H       1  WATER21111    0.0186
     36 ****       -1.9360    1.4524   -1.5682 H       1  WATER21111    0.0115
     37 ****       -2.7763    3.3141   -0.4132 H       1  WATER21111    0.0294
     38 ****       -2.9924    2.4526    1.1288 H       1  WATER21111    0.0230
     39 ****       -5.1876    2.0117    0.3640 H       1  WATER21111    0.0364
     40 ****       -4.7782    2.4845   -1.3038 H       1  WATER21111    0.0366
     41 ****       -3.7792   -1.5899    1.0072 H       1  WATER21111    0.0060
     42 ****       -2.1586   -1.0499    1.5076 H       1  WATER21111   -0.0016
     43 ****       -3.5573    0.0180    1.7484 H       1  WATER21111   -0.0021
     44 ****        1.3056   -0.3120    1.8104 H       1  WATER21111   -0.0034
     45 ****        2.8236   -1.0820    1.3096 H       1  WATER21111   -0.0017
     46 ****        4.3218    0.9179    0.4995 H       1  WATER21111    0.0155
     47 ****        5.5684    0.0918   -1.3746 H       1  WATER21111    0.0109
@<TRIPOS>BOND
     1     1    22    1
     2     1    21    1
     3     1    11    1
     4    11    20    1
     5    20    45    1
     6    20    44    1
     7    20    28    1
     8    10    11    1
     9    10    31    1
    10    10    12    1
    11    12    33    1
    12    12    32    1
    13    12    13    1
    14    13    35    1
    15    13    34    1
    16    13    14    1
    17    14    19    1
    18    19    43    1
    19    19    42    1
    20    19    41    1
    21    14    18    1
    22    18    29    2
    23    17    18    1
    24    17    40    1
    25    17    39    1
    26    16    17    1
    27    16    38    1
    28    16    37    1
    29    15    16    1
    30    15    36    1
    31    14    15    1
    32     9    15    1
    33     9    30    1
    34     9    10    1
    35     8     9    1
    36     7     8    2
    37     7    27    1
    38     6     7    2
    39     6    11    1
    40     5     6    1
    41     5    46    1
    42     5    25    1
    43     3     5    1
    44     3    47    1
    45     3    26    1
    46     2     3    1
    47     2    24    1
    48     2    23    1
    49     1     2    1
    50     8     4    2
