@<TRIPOS>MOLECULE
33
 48 51 0 0 0
SMALL
GASTEIGER

@<TRIPOS>ATOM
      1 ****        2.3332   -1.2307   -1.4652 C.3     1  WATER21111    0.0018
      2 ****        3.8692   -1.2016   -1.5468 C.3     1  WATER21111   -0.0143
      3 C3          4.4501    0.2186   -1.5638 C.3     1  WATER21111    0.0175
      4 ****        2.2124    3.1360    0.1990 H       1  WATER21111    0.0108
      5 C5          3.6045    1.2304   -0.8487 C.2     1  WATER21111   -0.0382
      6 C5          2.3781    1.0280   -0.3083 C.2     1  WATER21111   -0.1395
      7 C6          1.6892    2.1734    0.4053 C.3     1  WATER21111    0.0363
      8 C7          0.2150    2.3528    0.0188 C.3     1  WATER21111   -0.0036
      9 ****       -0.5897    1.0325    0.0434 C.3     1  WATER21111   -0.0141
     10 ****        0.1414   -0.0959   -0.7755 C.3     1  WATER21111   -0.0159
     11 ****        1.6624   -0.3371   -0.3573 C.3     1  WATER21111   -0.0255
     12 ****       -0.7273   -1.3844   -0.9063 C.3     1  WATER21111   -0.0085
     13 ****       -2.2207   -1.1798   -1.2577 C.3     1  WATER21111    0.0221
     14 ****       -2.9048   -0.1015   -0.3778 C.3     1  WATER21111   -0.1182
     15 ****       -2.0308    1.2031   -0.5109 C.3     1  WATER21111   -0.0275
     16 ****       -2.9574    2.3572   -0.0491 C.3     1  WATER21111   -0.0013
     17 ****       -4.3700    1.9386   -0.5187 C.3     1  WATER21111   -0.0516
     18 ****       -4.2839    0.4392   -0.8583 C.2     1  WATER21111    0.2325
     19 ****       -3.1384   -0.6419    1.0627 C.3     1  WATER21111    0.0543
     20 ****        1.7942   -1.0056    1.1150 C.3     1  WATER21111    0.4153
     21 ****       -5.1601   -0.2064   -1.4077 O.2     1  WATER21111   -0.2706
     22 ****        1.9491   -0.9120   -2.4629 H       1  WATER21111    0.0097
     23 ****        2.0234   -2.2930   -1.3545 H       1  WATER21111    0.0220
     24 ****        4.3148   -1.7825   -0.7091 H       1  WATER21111    0.0208
     25 ****        4.1792   -1.7366   -2.4740 H       1  WATER21111    0.0106
     26 ****        1.7780    2.0283    1.5078 H       1  WATER21111    0.0100
     27 ****       -0.6641    0.7281    1.1142 H       1  WATER21111    0.0143
     28 ****        0.2157    0.3062   -1.8211 H       1  WATER21111    0.0174
     29 ****       -0.3037   -2.0269   -1.7115 H       1  WATER21111    0.0123
     30 ****       -0.6787   -1.9917    0.0224 H       1  WATER21111    0.0149
     31 ****       -2.3130   -0.9106   -2.3344 H       1  WATER21111    0.0110
     32 ****       -2.7398   -2.1589   -1.1542 H       1  WATER21111    0.0202
     33 ****       -1.9003    1.3942   -1.6120 H       1  WATER21111    0.0121
     34 ****       -2.6621    3.3235   -0.5085 H       1  WATER21111    0.0161
     35 ****       -2.9306    2.5150    1.0491 H       1  WATER21111    0.0164
     36 ****       -5.1322    2.1157    0.2688 H       1  WATER21111    0.0365
     37 ****       -4.6872    2.5242   -1.4074 H       1  WATER21111    0.0367
     38 ****       -3.8261   -1.5127    1.0449 H       1  WATER21111    0.0079
     39 ****       -2.2061   -0.9785    1.5557 H       1  WATER21111    0.0000
     40 ****       -3.5915    0.1171    1.7323 H       1  WATER21111   -0.0050
     41 ****        1.0386   -0.5157    1.8031 H       1  WATER21111    0.0290
     42 F42         1.5837   -2.3454    1.1400 F       1  WATER21111   -0.2411
     43 F43         3.0245   -0.8537    1.6677 F       1  WATER21111   -0.2400
     44 ****        4.0792    2.2161   -0.7910 H       1  WATER21111    0.0544
     45 ****        5.4680    0.2096   -1.1100 H       1  WATER21111    0.0198
     46 ****       -0.2406    3.0804    0.7285 H       1  WATER21111    0.0084
     47 ****        0.1598    2.8273   -0.9874 H       1  WATER21111    0.0114
     48 ****        4.5883    0.5580   -2.6179 H       1  WATER21111    0.0125
@<TRIPOS>BOND
     1     1    22    1
     2     1    23    1
     3     1     2    1
     4     2    24    1
     5     2    25    1
     6     2     3    1
     7     3    48    1
     8     3    45    1
     9     3     5    1
    10     5    44    1
    11     5     6    2
    12     6     7    1
    13     7    26    1
    14     7     4    1
    15     7     8    1
    16     8    47    1
    17     8    46    1
    18     8     9    1
    19     9    27    1
    20     9    15    1
    21    15    33    1
    22    15    16    1
    23    16    34    1
    24    16    17    1
    25    17    18    1
    26    14    18    1
    27    14    19    1
    28    19    40    1
    29    19    38    1
    30    19    39    1
    31    13    14    1
    32    13    32    1
    33    13    31    1
    34    12    13    1
    35    12    30    1
    36    10    12    1
    37    10    28    1
    38     9    10    1
    39    10    11    1
    40     1    11    1
    41    11    20    1
    42    20    41    1
    43    20    43    1
    44    20    42    1
    45     6    11    1
    46    12    29    1
    47    14    15    1
    48    18    21    2
    49    17    37    1
    50    17    36    1
    51    16    35    1
