@<TRIPOS>MOLECULE
35
 50 53 0 0 0
SMALL
GASTEIGER

@<TRIPOS>ATOM
      1 ****        2.3208   -1.1953   -1.5176 C.3     1  WATER21111    0.0035
      2 ****        3.8552   -1.2325   -1.5420 C.3     1  WATER21111   -0.0467
      3 C3          4.4622    0.1672   -1.4818 C.1     1  WATER21111    0.2539
      4 ****        1.6446    1.8375    1.5242 H       1  WATER21111    0.0200
      5 C5          3.6397    1.2210   -0.8173 C.1     1  WATER21111   -0.1356
      6 C5          2.3911    1.0556   -0.3105 C.2     1  WATER21111   -0.0339
      7 C6          1.6843    2.1774    0.4546 C.3     1  WATER21111   -0.0183
      8 C7          0.2257    2.3597   -0.0343 C.3     1  WATER21111    0.0101
      9 ****       -0.5867    1.0456    0.0028 C.3     1  WATER21111   -0.0165
     10 ****        0.1360   -0.0737   -0.8275 C.3     1  WATER21111   -0.0103
     11 ****        1.6522   -0.3049   -0.4049 C.3     1  WATER21111   -0.0304
     12 ****       -0.7184   -1.3746   -0.9275 C.3     1  WATER21111   -0.0036
     13 ****       -2.2259   -1.1939   -1.2284 C.3     1  WATER21111    0.0219
     14 ****       -2.8969   -0.1053   -0.3511 C.3     1  WATER21111   -0.1176
     15 ****       -2.0382    1.2057   -0.5252 C.3     1  WATER21111   -0.0269
     16 ****       -2.9663    2.3582   -0.0624 C.3     1  WATER21111   -0.0014
     17 ****       -4.3843    1.9185   -0.4954 C.3     1  WATER21111   -0.0515
     18 ****       -4.2920    0.4139   -0.8084 C.2     1  WATER21111    0.2323
     19 ****       -3.0910   -0.6232    1.1034 C.3     1  WATER21111    0.0544
     20 ****        1.8002   -1.0223    0.9720 C.3     1  WATER21111    0.0471
     21 ****       -5.1749   -0.2505   -1.3239 O.2     1  WATER21111   -0.2714
     22 ****        1.9827   -0.8502   -2.5226 H       1  WATER21111    0.0103
     23 ****        1.9688   -2.2473   -1.4232 H       1  WATER21111    0.0119
     24 ****        4.2554   -1.8288   -0.6907 H       1  WATER21111    0.0309
     25 ****        4.1826   -1.7619   -2.4654 H       1  WATER21111    0.0353
     26 ****        1.5490   -2.1004    0.9111 H       1  WATER21111   -0.0006
     27 ****       -0.6416    0.7386    1.0744 H       1  WATER21111    0.0187
     28 ****        0.1908    0.3201   -1.8769 H       1  WATER21111    0.0112
     29 ****       -0.3151   -2.0115   -1.7479 H       1  WATER21111    0.0074
     30 ****       -0.6193   -1.9803   -0.0002 H       1  WATER21111    0.0075
     31 ****       -2.3566   -0.9480   -2.3068 H       1  WATER21111    0.0113
     32 ****       -2.7301   -2.1762   -1.0880 H       1  WATER21111    0.0179
     33 ****       -1.9325    1.3817   -1.6313 H       1  WATER21111    0.0120
     34 ****       -2.6900    3.3194   -0.5439 H       1  WATER21111    0.0161
     35 ****       -2.9189    2.5347    1.0322 H       1  WATER21111    0.0162
     36 ****       -5.1321    2.1040    0.3036 H       1  WATER21111    0.0363
     37 ****       -4.7244    2.4838   -1.3887 H       1  WATER21111    0.0368
     38 ****       -3.7974   -1.4792    1.1210 H       1  WATER21111    0.0063
     39 ****       -2.1490   -0.9754    1.5663 H       1  WATER21111    0.0003
     40 ****       -3.5033    0.1535    1.7788 H       1  WATER21111   -0.0048
     41 ****        1.1492   -0.5854    1.7541 H       1  WATER21111   -0.0017
     42 C42         2.3995    3.5462    0.5144 C.3     1  WATER21111    0.0385
     43 ****        2.8404   -0.9584    1.3528 H       1  WATER21111   -0.0028
     44 ****        4.1544    2.1842   -0.7575 H       1  WATER21111    0.0752
     45 ****        5.5740    0.4112   -1.9410 O.2     1  WATER21111   -0.2874
     46 ****       -0.2730    3.1098    0.6209 H       1  WATER21111    0.0074
     47 ****        0.2241    2.7927   -1.0599 H       1  WATER21111    0.0125
     48 ****        3.3884    3.4652    1.0095 H       1  WATER21111   -0.0004
     49 ****        2.5450    3.9977   -0.4871 H       1  WATER21111    0.0015
     50 ****        1.8065    4.2655    1.1172 H       1  WATER21111   -0.0032
@<TRIPOS>BOND
     1     1    23    1
     2     1    22    1
     3     1    11    1
     4    11    20    1
     5    20    26    1
     6    20    41    1
     7    20    43    1
     8    10    11    1
     9    10    28    1
    10    10    12    1
    11    12    13    1
    12    13    31    1
    13    13    32    1
    14    13    14    1
    15    14    18    1
    16    17    18    1
    17    17    37    1
    18    17    36    1
    19    16    17    1
    20    16    35    1
    21    16    34    1
    22    15    16    1
    23    15    33    1
    24     9    15    1
    25     9    10    1
    26     9    27    1
    27     8     9    1
    28     8    47    1
    29     7     8    1
    30     7    42    1
    31    42    49    1
    32    42    50    1
    33    42    48    1
    34     7     4    1
    35     6     7    1
    36     6    11    1
    37     5     6    2
    38     3     5    2
    39     3    45    2
    40     2     3    1
    41     2    24    1
    42     1     2    1
    43     2    25    1
    44     5    44    1
    45     8    46    1
    46    14    15    1
    47    18    21    2
    48    14    19    1
    49    19    39    1
    50    19    38    1
    51    19    40    1
    52    12    29    1
    53    12    30    1
