@<TRIPOS>MOLECULE
37
 53 56 0 0 0
SMALL
GASTEIGER

@<TRIPOS>ATOM
      1 ****        2.3166   -1.1747   -1.5441 C.3     1  WATER21111    0.0038
      2 ****        3.8499   -1.2461   -1.5460 C.3     1  WATER21111   -0.0470
      3 C3          4.4992    0.1272   -1.4015 C.1     1  WATER21111    0.2544
      4 ****        1.6333    1.8756    1.4779 H       1  WATER21111    0.0164
      5 C5          3.6758    1.1955   -0.7620 C.1     1  WATER21111   -0.1365
      6 C5          2.3973    1.0685   -0.3231 C.2     1  WATER21111   -0.0325
      7 C6          1.6787    2.2095    0.4045 C.3     1  WATER21111   -0.0014
      8 C7          0.2168    2.3699   -0.0814 C.3     1  WATER21111    0.0092
      9 ****       -0.5888    1.0528   -0.0153 C.3     1  WATER21111   -0.0170
     10 ****        0.1319   -0.0633   -0.8499 C.3     1  WATER21111   -0.0104
     11 ****        1.6486   -0.2883   -0.4284 C.3     1  WATER21111   -0.0305
     12 ****       -0.7190   -1.3664   -0.9544 C.3     1  WATER21111   -0.0035
     13 ****       -2.2307   -1.1908   -1.2372 C.3     1  WATER21111    0.0220
     14 ****       -2.8965   -0.1121   -0.3442 C.3     1  WATER21111   -0.1174
     15 ****       -2.0480    1.2045   -0.5235 C.3     1  WATER21111   -0.0269
     16 ****       -2.9747    2.3501   -0.0415 C.3     1  WATER21111   -0.0016
     17 ****       -4.3974    1.9042   -0.4519 C.3     1  WATER21111   -0.0515
     18 ****       -4.3013    0.4023   -0.7771 C.2     1  WATER21111    0.2324
     19 ****       -3.0652   -0.6408    1.1096 C.3     1  WATER21111    0.0543
     20 ****        1.7966   -1.0092    0.9475 C.3     1  WATER21111    0.0465
     21 ****       -5.1881   -0.2632   -1.2841 O.2     1  WATER21111   -0.2714
     22 ****        2.0018   -0.8038   -2.5475 H       1  WATER21111    0.0102
     23 ****        1.9419   -2.2206   -1.4739 H       1  WATER21111    0.0121
     24 ****        4.2181   -1.8986   -0.7215 H       1  WATER21111    0.0310
     25 ****        4.1802   -1.7338   -2.4913 H       1  WATER21111    0.0352
     26 ****        1.5418   -2.0862    0.8849 H       1  WATER21111   -0.0005
     27 ****       -0.6273    0.7542    1.0590 H       1  WATER21111    0.0193
     28 ****        0.1833    0.3326   -1.8987 H       1  WATER21111    0.0112
     29 ****       -0.3221   -1.9921   -1.7865 H       1  WATER21111    0.0073
     30 ****       -0.6076   -1.9822   -0.0352 H       1  WATER21111    0.0075
     31 ****       -2.3751   -0.9384   -2.3124 H       1  WATER21111    0.0113
     32 ****       -2.7281   -2.1768   -1.0978 H       1  WATER21111    0.0179
     33 ****       -1.9584    1.3857   -1.6302 H       1  WATER21111    0.0120
     34 ****       -2.7114    3.3144   -0.5240 H       1  WATER21111    0.0161
     35 ****       -2.9098    2.5231    1.0527 H       1  WATER21111    0.0162
     36 ****       -5.1317    2.0795    0.3620 H       1  WATER21111    0.0363
     37 ****       -4.7572    2.4740   -1.3346 H       1  WATER21111    0.0368
     38 ****       -3.7670   -1.5004    1.1322 H       1  WATER21111    0.0063
     39 ****       -2.1143   -0.9918    1.5548 H       1  WATER21111    0.0002
     40 ****       -3.4702    0.1289    1.7972 H       1  WATER21111   -0.0047
     41 ****        1.1494   -0.5701    1.7316 H       1  WATER21111   -0.0015
     42 C42         2.3902    3.5917    0.5039 C.3     1  WATER21111   -0.0098
     43 ****        2.8375   -0.9511    1.3275 H       1  WATER21111   -0.0027
     44 ****        4.2224    2.1369   -0.6605 H       1  WATER21111    0.0747
     45 ****        5.6474    0.3403   -1.7803 O.2     1  WATER21111   -0.2880
     46 ****       -0.2832    3.1310    0.5600 H       1  WATER21111    0.0078
     47 ****        0.1997    2.7737   -1.1183 H       1  WATER21111    0.0124
     48 ****        3.4135    3.4386    0.9178 H       1  WATER21111    0.0083
     49 C49         2.4859    4.4806   -0.7402 C.3     1  WATER21111    0.0290
     50 ****        1.8573    4.1761    1.2931 H       1  WATER21111    0.0039
     51 ****        3.2568    5.2637   -0.5835 H       1  WATER21111   -0.0016
     52 ****        2.7625    3.9229   -1.6561 H       1  WATER21111   -0.0001
     53 ****        1.5286    5.0021   -0.9446 H       1  WATER21111   -0.0055
@<TRIPOS>BOND
     1     1    11    1
     2    11    20    1
     3    20    26    1
     4    20    41    1
     5    20    43    1
     6     6    11    1
     7     6     7    1
     8     7    42    1
     9    42    50    1
    10    42    49    1
    11    49    52    1
    12    49    51    1
    13    49    53    1
    14    42    48    1
    15     7     4    1
    16     7     8    1
    17     8    47    1
    18     8    46    1
    19     8     9    1
    20     9    15    1
    21    15    16    1
    22    16    34    1
    23    16    35    1
    24    16    17    1
    25    17    36    1
    26    17    18    1
    27    18    21    2
    28    14    18    1
    29    14    19    1
    30    19    40    1
    31    19    38    1
    32    19    39    1
    33    13    14    1
    34    12    13    1
    35    12    29    1
    36    10    12    1
    37    10    11    1
    38    10    28    1
    39     9    10    1
    40    12    30    1
    41    13    31    1
    42    13    32    1
    43    14    15    1
    44    17    37    1
    45    15    33    1
    46     9    27    1
    47     5     6    2
    48     5    44    1
    49     3     5    2
    50     3    45    2
    51     2     3    1
    52     2    25    1
    53     1     2    1
    54     2    24    1
    55     1    22    1
    56     1    23    1
