@<TRIPOS>MOLECULE
61
 58 62 0 0 0
SMALL
GASTEIGER

@<TRIPOS>ATOM
      1 ****        2.3361   -1.2232   -1.4995 C.3     1  WATER21111    0.0049
      2 ****        3.8727   -1.2180   -1.5343 C.3     1  WATER21111   -0.0459
      3 C3          4.4607    0.1915   -1.4757 C.1     1  WATER21111    0.2539
      4 ****        1.6480    1.9137    1.5248 H       1  WATER21111    0.0193
      5 C5          3.6406    1.2170   -0.7668 C.1     1  WATER21111   -0.1227
      6 C5          2.3862    1.0162   -0.2917 C.2     1  WATER21111   -0.0515
      7 C6          1.6800    2.1446    0.4332 C.3     1  WATER21111    0.0327
      8 C7          0.2441    2.4051   -0.0732 C.3     1  WATER21111   -0.1067
      9 ****       -0.5788    1.0803   -0.0538 C.3     1  WATER21111    0.0115
     10 ****        0.1392   -0.0680   -0.8568 C.3     1  WATER21111   -0.0123
     11 ****        1.6440   -0.3305   -0.4051 C.3     1  WATER21111   -0.0271
     12 ****       -0.7227   -1.3645   -0.9521 C.3     1  WATER21111   -0.0036
     13 ****       -2.2320   -1.1857   -1.2360 C.3     1  WATER21111    0.0212
     14 ****       -2.8882   -0.1020   -0.3432 C.3     1  WATER21111   -0.1178
     15 ****       -2.0462    1.2171   -0.5466 C.3     1  WATER21111   -0.0294
     16 ****       -2.9761    2.3578   -0.0570 C.3     1  WATER21111   -0.0010
     17 ****       -4.4004    1.9044   -0.4531 C.3     1  WATER21111   -0.0506
     18 ****       -4.3007    0.4007   -0.7652 C.2     1  WATER21111    0.2331
     19 ****       -3.0421   -0.6179    1.1168 C.3     1  WATER21111    0.0536
     20 ****        1.7598   -1.0462    0.9761 C.3     1  WATER21111    0.0467
     21 ****       -5.1898   -0.2751   -1.2543 O.2     1  WATER21111   -0.2707
     22 ****        1.9866   -0.9081   -2.5104 H       1  WATER21111    0.0128
     23 ****        2.0136   -2.2826   -1.3844 H       1  WATER21111    0.0121
     24 ****        4.2906   -1.8046   -0.6842 H       1  WATER21111    0.0298
     25 ****        4.2053   -1.7415   -2.4592 H       1  WATER21111    0.0359
     26 ****        1.4778   -2.1167    0.9191 H       1  WATER21111    0.0009
     27 ****       -0.6185    0.7944    1.0259 H       1  WATER21111    0.0172
     28 ****        0.2151    0.3055   -1.9110 H       1  WATER21111    0.0228
     29 ****       -0.3244   -1.9974   -1.7783 H       1  WATER21111    0.0089
     30 ****       -0.6171   -1.9753   -0.0289 H       1  WATER21111    0.0065
     31 ****       -2.3775   -0.9355   -2.3115 H       1  WATER21111    0.0139
     32 ****       -2.7328   -2.1695   -1.0934 H       1  WATER21111    0.0183
     33 ****       -1.9768    1.3827   -1.6560 H       1  WATER21111    0.0255
     34 ****       -2.7288    3.3245   -0.5414 H       1  WATER21111    0.0191
     35 ****       -2.9004    2.5305    1.0368 H       1  WATER21111    0.0121
     36 ****       -5.1298    2.0848    0.3640 H       1  WATER21111    0.0356
     37 ****       -4.7677    2.4647   -1.3388 H       1  WATER21111    0.0387
     38 ****       -3.7124   -1.5019    1.1480 H       1  WATER21111    0.0071
     39 ****       -2.0813   -0.9276    1.5711 H       1  WATER21111   -0.0008
     40 ****       -3.4785    0.1451    1.7927 H       1  WATER21111   -0.0050
     41 ****        1.1176   -0.5844    1.7513 H       1  WATER21111   -0.0030
     42 ****        2.2665    3.0889    0.3687 H       1  WATER21111    0.0153
     43 ****        2.7995   -1.0115    1.3623 H       1  WATER21111   -0.0026
     44 ****        4.1318    2.1880   -0.6467 H       1  WATER21111    0.0749
     45 ****        5.5504    0.4627   -1.9704 O.2     1  WATER21111   -0.2853
     46 ****       -0.2288    3.0998    0.6612 H       1  WATER21111    0.0240
     47 S47         0.2094    3.1792   -1.6459 S.3     1  WATER21111    0.1249
     48 ****        0.7680    4.7740   -1.5168 C.ar    2  <2>222     -0.1951
     49 ****        1.8881    5.1561   -2.2909 C.ar    2  <2>222     -0.0122
     50 ****        2.3401    6.4878   -2.2972 C.ar    2  <2>222     -0.0367
     51 ****        1.6733    7.4525   -1.5216 C.ar    2  <2>222     -0.0656
     52 ****        0.5547    7.0927   -0.7495 C.ar    2  <2>222     -0.0368
     53 ****        0.1050    5.7605   -0.7538 C.ar    2  <2>222     -0.0285
     54 ****        2.4142    4.4172   -2.8981 H       2  <2>222      0.0774
     55 ****        3.2050    6.7596   -2.9034 H       2  <2>222      0.0806
     56 BR56        2.2627    9.1879   -1.5188 Br      2  <2>222     -0.0244
     57 ****        0.0278    7.8357   -0.1498 H       2  <2>222      0.0780
     58 ****       -0.7740    5.5062   -0.1598 H       2  <2>222      0.0662
@<TRIPOS>BOND
     1     1    23    1
     2     1    22    1
     3     1    11    1
     4    11    20    1
     5    20    43    1
     6    20    41    1
     7    20    26    1
     8    10    11    1
     9    10    28    1
    10    10    12    1
    11    12    30    1
    12    12    29    1
    13    12    13    1
    14    13    32    1
    15    13    31    1
    16    13    14    1
    17    14    19    1
    18    19    40    1
    19    19    39    1
    20    19    38    1
    21    14    18    1
    22    18    21    2
    23    17    18    1
    24    17    37    1
    25    17    36    1
    26    16    17    1
    27    16    35    1
    28    16    34    1
    29    15    16    1
    30    15    33    1
    31    14    15    1
    32     9    15    1
    33     9    27    1
    34     9    10    1
    35     8     9    1
    36     8    47    1
    37    47    48    1
    38    53    48   ar
    39    53    58    1
    40    52    53   ar
    41    51    52   ar
    42    51    56    1
    43    50    51   ar
    44    50    55    1
    45    49    50   ar
    46    49    54    1
    47    48    49   ar
    48    52    57    1
    49     8    46    1
    50     7     8    1
    51     7    42    1
    52     6     7    1
    53     6    11    1
    54     5     6    2
    55     5    44    1
    56     3     5    2
    57     3    45    2
    58     2     3    1
    59     2    25    1
    60     2    24    1
    61     1     2    1
    62     7     4    1
