@<TRIPOS>MOLECULE
68
 58 62 0 0 0
SMALL
GASTEIGER

@<TRIPOS>ATOM
      1 ****        2.2312   -1.2633   -1.3254 C.3     1  WATER21111    0.0077
      2 ****        3.7429   -1.2473   -1.3078 C.3     1  WATER21111   -0.0512
      3 C3          4.2964    0.1226   -1.5763 C.1     1  WATER21111    0.2484
      4 ****       -0.2848    3.3968    1.1080 C.3     1  WATER21111    0.0809
      5 C5          3.5233    1.2395   -1.0211 C.1     1  WATER21111   -0.1220
      6 C5          2.3021    1.0861   -0.4737 C.1     1  WATER21111   -0.0153
      7 C6          1.5831    2.2205    0.0772 C.1     1  WATER21111   -0.0453
      8 C7          0.2694    2.2126    0.3843 C.2     1  WATER21111   -0.0956
      9 ****       -0.5819    0.9997    0.1661 C.3     1  WATER21111    0.0305
     10 ****        0.1304    0.0003   -0.7800 C.3     1  WATER21111   -0.0233
     11 ****        1.5976   -0.2447   -0.3710 C.3     1  WATER21111   -0.0502
     12 ****       -0.6512   -1.2973   -0.9318 C.3     1  WATER21111   -0.0095
     13 ****       -2.0816   -1.0712   -1.3873 C.3     1  WATER21111    0.0179
     14 ****       -2.7750   -0.0801   -0.4751 C.3     1  WATER21111   -0.1338
     15 ****       -1.9537    1.2373   -0.4529 C.3     1  WATER21111   -0.0266
     16 ****       -2.9506    2.2585    0.0927 C.3     1  WATER21111   -0.0055
     17 ****       -4.2853    1.8586   -0.5405 C.3     1  WATER21111   -0.0561
     18 ****       -4.1388    0.4108   -0.9543 C.2     1  WATER21111    0.2341
     19 ****       -3.0026   -0.6891    0.9022 C.3     1  WATER21111    0.0497
     20 ****        1.7086   -0.7603    1.0590 C.3     1  WATER21111    0.0478
     21 ****       -4.9771   -0.2507   -1.5597 O.2     1  WATER21111   -0.2739
     22 ****        1.8790   -1.0540   -2.3708 H       1  WATER21111    0.0142
     23 ****        1.8805   -2.2924   -1.0473 H       1  WATER21111    0.0151
     24 ****        4.1261   -1.5796   -0.3052 H       1  WATER21111    0.0320
     25 ****        4.1356   -1.9697   -2.0719 H       1  WATER21111    0.0379
     26 ****        1.1331   -1.7095    1.1745 H       1  WATER21111    0.0016
     27 ****       -0.7183    0.5203    1.1786 H       1  WATER21111    0.0269
     28 ****        0.1666    0.4869   -1.7997 H       1  WATER21111    0.0195
     29 ****       -0.1476   -1.9473   -1.6963 H       1  WATER21111    0.0131
     30 ****       -0.6456   -1.8608    0.0373 H       1  WATER21111    0.0120
     31 ****       -2.0897   -0.6813   -2.4388 H       1  WATER21111    0.0143
     32 ****       -2.6387   -2.0440   -1.3855 H       1  WATER21111    0.0233
     33 ****       -1.7708    1.5348   -1.5296 H       1  WATER21111    0.0180
     34 ****       -2.6641    3.3009   -0.1926 H       1  WATER21111    0.0255
     35 ****       -3.0239    2.2007    1.2071 H       1  WATER21111    0.0172
     36 ****       -5.1332    1.9697    0.1793 H       1  WATER21111    0.0393
     37 ****       -4.5110    2.4856   -1.4393 H       1  WATER21111    0.0395
     38 ****       -3.7137   -1.5471    0.8144 H       1  WATER21111    0.0096
     39 ****       -2.0495   -1.0680    1.3404 H       1  WATER21111    0.0029
     40 ****       -3.4370    0.0670    1.5996 H       1  WATER21111   -0.0023
     41 ****        1.3107   -0.0069    1.7805 H       1  WATER21111    0.0009
     42 ****        2.1868    3.1273    0.2615 H       1  WATER21111    0.0626
     43 ****        2.7774   -0.9600    1.3138 H       1  WATER21111   -0.0004
     44 ****        4.0026    2.2304   -1.0866 H       1  WATER21111    0.0802
     45 ****        5.3491    0.2936   -2.2032 O.2     1  WATER21111   -0.2896
     46 ****       -1.2648    3.1383    1.5917 H       1  WATER21111    0.0127
     47 ****        0.4208    3.6434    1.9538 H       1  WATER21111    0.0099
     48 ****       -0.4592    4.6190    0.2724 C.ar    2  <2>222     -0.0971
     49 ****       -0.6301    4.5518   -1.1143 C.ar    2  <2>222     -0.0403
     50 ****       -0.8045    5.7164   -1.8610 C.ar    2  <2>222     -0.0610
     51 ****       -0.8122    6.9592   -1.2292 C.ar    2  <2>222     -0.0495
     52 ****       -0.6451    7.0341    0.1539 C.ar    2  <2>222     -0.0612
     53 ****       -0.4682    5.8719    0.9012 C.ar    2  <2>222     -0.0408
     54 ****       -0.6209    3.5716   -1.6167 H       2  <2>222      0.0589
     55 ****       -0.9342    5.6519   -2.9514 H       2  <2>222      0.0621
     56 ****       -0.9471    7.8774   -1.8190 H       2  <2>222      0.0622
     57 ****       -0.6514    8.0127    0.6562 H       2  <2>222      0.0618
     58 ****       -0.3321    5.9365    1.9911 H       2  <2>222      0.0597
@<TRIPOS>BOND
     1     1    23    1
     2     1    22    1
     3     1    11    1
     4    10    11    1
     5    10    12    1
     6    12    29    1
     7    12    13    1
     8    13    31    1
     9    13    14    1
    10    14    15    1
    11    15    16    1
    12    16    35    1
    13    16    17    1
    14    17    18    1
    15    18    21    2
    16    14    18    1
    17    17    37    1
    18    17    36    1
    19    16    34    1
    20    15    33    1
    21     9    15    1
    22     8     9    1
    23     7     8    2
    24     7    42    1
    25     6     7    2
    26     5     6    2
    27     3     5    2
    28     2     3    1
    29     2    24    1
    30     1     2    1
    31     2    25    1
    32     3    45    2
    33     5    44    1
    34     6    11    1
    35     8     4    1
    36     4    46    1
    37     4    48    1
    38    48    49   ar
    39    49    54    1
    40    49    50   ar
    41    50    55    1
    42    50    51   ar
    43    51    56    1
    44    51    52   ar
    45    52    57    1
    46    52    53   ar
    47    53    48   ar
    48    53    58    1
    49     4    47    1
    50     9    10    1
    51     9    27    1
    52    14    19    1
    53    19    38    1
    54    19    39    1
    55    19    40    1
    56    13    32    1
    57    12    30    1
    58    10    28    1
    59    11    20    1
    60    20    26    1
    61    20    41    1
    62    20    43    1
