@<TRIPOS>MOLECULE
71
 61 65 0 0 0
SMALL
GASTEIGER

@<TRIPOS>ATOM
      1 ****        2.2317   -1.2584   -1.3279 C.3     1  WATER21111    0.0075
      2 ****        3.7430   -1.2608   -1.2902 C.3     1  WATER21111   -0.0508
      3 C3          4.3128    0.1061   -1.5432 C.1     1  WATER21111    0.2484
      4 ****       -0.2923    3.4138    1.0669 C.3     1  WATER21111    0.0289
      5 C5          3.5348    1.2314   -1.0120 C.1     1  WATER21111   -0.1231
      6 C5          2.3049    1.0900   -0.4809 C.1     1  WATER21111   -0.0135
      7 C6          1.5823    2.2298    0.0535 C.1     1  WATER21111   -0.0478
      8 C7          0.2700    2.2215    0.3666 C.2     1  WATER21111   -0.0942
      9 ****       -0.5812    1.0067    0.1565 C.3     1  WATER21111    0.0306
     10 ****        0.1304    0.0086   -0.7915 C.3     1  WATER21111   -0.0231
     11 ****        1.5960   -0.2383   -0.3772 C.3     1  WATER21111   -0.0507
     12 ****       -0.6490   -1.2893   -0.9512 C.3     1  WATER21111   -0.0095
     13 ****       -2.0818   -1.0640   -1.3981 C.3     1  WATER21111    0.0178
     14 ****       -2.7726   -0.0807   -0.4760 C.3     1  WATER21111   -0.1338
     15 ****       -1.9577    1.2413   -0.4546 C.3     1  WATER21111   -0.0262
     16 ****       -2.9580    2.2533    0.1029 C.3     1  WATER21111   -0.0042
     17 ****       -4.2980    1.8450   -0.5141 C.3     1  WATER21111   -0.0569
     18 ****       -4.1429    0.4026   -0.9425 C.2     1  WATER21111    0.2342
     19 ****       -2.9876   -0.6963    0.9006 C.3     1  WATER21111    0.0496
     20 ****        1.7007   -0.7492    1.0551 C.3     1  WATER21111    0.0477
     21 ****       -4.9806   -0.2593   -1.5481 O.2     1  WATER21111   -0.2734
     22 ****        1.8953   -1.0399   -2.3765 H       1  WATER21111    0.0142
     23 ****        1.8665   -2.2849   -1.0587 H       1  WATER21111    0.0148
     24 ****        4.1110   -1.6039   -0.2857 H       1  WATER21111    0.0324
     25 ****        4.1377   -1.9818   -2.0545 H       1  WATER21111    0.0379
     26 ****        1.0947   -1.6778    1.1813 H       1  WATER21111    0.0015
     27 ****       -0.7109    0.5285    1.1705 H       1  WATER21111    0.0268
     28 ****        0.1696    0.4987   -1.8095 H       1  WATER21111    0.0199
     29 ****       -0.1471   -1.9304   -1.7244 H       1  WATER21111    0.0131
     30 ****       -0.6378   -1.8625    0.0121 H       1  WATER21111    0.0120
     31 ****       -2.0963   -0.6670   -2.4470 H       1  WATER21111    0.0144
     32 ****       -2.6370   -2.0379   -1.4000 H       1  WATER21111    0.0234
     33 ****       -1.7817    1.5446   -1.5302 H       1  WATER21111    0.0194
     34 ****       -2.6897    3.2984   -0.1847 H       1  WATER21111    0.0212
     35 ****       -3.0157    2.1951    1.2183 H       1  WATER21111    0.0174
     36 ****       -5.1357    1.9402    0.2199 H       1  WATER21111    0.0393
     37 ****       -4.5448    2.4773   -1.4035 H       1  WATER21111    0.0396
     38 ****       -3.7004   -1.5531    0.8152 H       1  WATER21111    0.0096
     39 ****       -2.0307   -1.0777    1.3279 H       1  WATER21111    0.0033
     40 ****       -3.4151    0.0564    1.6058 H       1  WATER21111   -0.0025
     41 ****        1.3337    0.0221    1.7741 H       1  WATER21111    0.0012
     42 ****        2.1803    3.1444    0.2215 H       1  WATER21111    0.0635
     43 ****        2.7639   -0.9825    1.3043 H       1  WATER21111   -0.0004
     44 ****        4.0197    2.2196   -1.0794 H       1  WATER21111    0.0800
     45 ****        5.3842    0.2678   -2.1407 O.2     1  WATER21111   -0.2906
     46 C46        -0.5305    4.6000    0.1414 C.3     1  WATER21111    0.0412
     47 ****        0.4236    3.7232    1.8794 H       1  WATER21111    0.0129
     48 ****        0.6098    5.5577    0.1211 C.ar    2  <2>222     -0.0996
     49 ****        0.9169    6.3083    1.2636 C.ar    2  <2>222     -0.0424
     50 ****        1.9676    7.2229    1.2436 C.ar    2  <2>222     -0.0611
     51 ****        2.7210    7.3981    0.0823 C.ar    2  <2>222     -0.0506
     52 ****        2.4198    6.6551   -1.0583 C.ar    2  <2>222     -0.0613
     53 ****        1.3687    5.7386   -1.0404 C.ar    2  <2>222     -0.0398
     54 ****        0.3217    6.1737    2.1791 H       2  <2>222      0.0585
     55 ****        2.2024    7.8088    2.1444 H       2  <2>222      0.0612
     56 ****        3.5498    8.1207    0.0670 H       2  <2>222      0.0618
     57 ****        3.0123    6.7908   -1.9753 H       2  <2>222      0.0625
     58 ****        1.1359    5.1552   -1.9439 H       2  <2>222      0.0602
     59 ****       -0.7413    4.2324   -0.8984 H       1  WATER21111    0.0094
     60 ****       -1.4469    5.1502    0.4918 H       1  WATER21111    0.0094
     61 ****       -1.2482    3.1402    1.5839 H       1  WATER21111    0.0090
@<TRIPOS>BOND
     1     1    22    1
     2     1    23    1
     3     1    11    1
     4    10    11    1
     5    10    12    1
     6    12    30    1
     7    12    29    1
     8    12    13    1
     9    13    32    1
    10    13    14    1
    11    14    15    1
    12    15    16    1
    13    16    17    1
    14    17    37    1
    15    17    18    1
    16    18    21    2
    17    14    18    1
    18    17    36    1
    19    16    35    1
    20    16    34    1
    21     9    15    1
    22     9    10    1
    23     8     9    1
    24     8     4    1
    25     4    47    1
    26     4    46    1
    27    46    59    1
    28    48    46    1
    29    48    49   ar
    30    49    50   ar
    31    50    51   ar
    32    51    52   ar
    33    52    57    1
    34    52    53   ar
    35    53    48   ar
    36    53    58    1
    37    51    56    1
    38    50    55    1
    39    49    54    1
    40    46    60    1
    41     4    61    1
    42     7     8    2
    43     7    42    1
    44     6     7    2
    45     6    11    1
    46     5     6    2
    47     5    44    1
    48     3     5    2
    49     3    45    2
    50     2     3    1
    51     2    25    1
    52     1     2    1
    53     2    24    1
    54     9    27    1
    55    15    33    1
    56    14    19    1
    57    19    40    1
    58    19    38    1
    59    19    39    1
    60    13    31    1
    61    10    28    1
    62    11    20    1
    63    20    41    1
    64    20    26    1
    65    20    43    1
