@<TRIPOS>MOLECULE
74
 51 55 0 0 0
SMALL
GASTEIGER

@<TRIPOS>ATOM
      1 ****        2.3510   -1.1655   -1.5643 C.3     1  WATER21111    0.0109
      2 ****        3.8627   -1.3068   -1.2759 C.3     1  WATER21111   -0.0822
      3 C3          4.5025    0.0938   -1.3547 C.1     1  WATER21111    0.2622
      4 ****        1.8190    2.1590    1.3665 H       1  WATER21111    0.0153
      5 C5          3.6680    1.2092   -0.8124 C.1     1  WATER21111   -0.1310
      6 C5          2.3855    1.0650   -0.3870 C.2     1  WATER21111   -0.0521
      7 C6          1.6876    2.2428    0.2607 C.3     1  WATER21111    0.0273
      8 C7          0.1965    2.3862   -0.0708 C.3     1  WATER21111   -0.0013
      9 ****       -0.5833    1.0513   -0.0201 C.3     1  WATER21111   -0.0135
     10 ****        0.1342   -0.0414   -0.8931 C.3     1  WATER21111   -0.0076
     11 ****        1.6444   -0.2894   -0.4704 C.3     1  WATER21111   -0.0200
     12 ****       -0.7193   -1.3344   -1.0707 C.3     1  WATER21111   -0.0033
     13 ****       -2.2339   -1.1489   -1.3252 C.3     1  WATER21111    0.0219
     14 ****       -2.8894   -0.1242   -0.3641 C.3     1  WATER21111   -0.1173
     15 ****       -2.0537    1.2054   -0.4939 C.3     1  WATER21111   -0.0274
     16 ****       -2.9808    2.3188    0.0587 C.3     1  WATER21111   -0.0016
     17 ****       -4.4071    1.8827   -0.3493 C.3     1  WATER21111   -0.0515
     18 ****       -4.3063    0.3982   -0.7446 C.2     1  WATER21111    0.2324
     19 ****       -3.0252   -0.7263    1.0640 C.3     1  WATER21111    0.0546
     20 ****        1.8217   -1.0358    0.8987 C.3     1  WATER21111    0.0109
     21 ****       -5.1985   -0.2506   -1.2637 O.2     1  WATER21111   -0.2714
     22 ****        2.2077   -0.7257   -2.5769 H       1  WATER21111    0.0134
     23 ****        1.9039   -2.1822   -1.6166 H       1  WATER21111    0.0143
     24 C24         4.1090   -1.9993    0.0869 C.3     1  WATER21111    0.0073
     25 ****        4.3086   -1.9558   -2.0675 H       1  WATER21111    0.0441
     26 ****        1.2038   -1.9612    0.9063 H       1  WATER21111    0.0087
     27 ****       -0.5910    0.7256    1.0470 H       1  WATER21111    0.0191
     28 ****        0.2024    0.3947   -1.9255 H       1  WATER21111    0.0107
     29 ****       -0.3275   -1.9020   -1.9463 H       1  WATER21111    0.0072
     30 ****       -0.6011   -2.0106   -0.1963 H       1  WATER21111    0.0078
     31 ****       -2.3930   -0.8371   -2.3826 H       1  WATER21111    0.0112
     32 ****       -2.7272   -2.1428   -1.2356 H       1  WATER21111    0.0180
     33 ****       -1.9845    1.4382   -1.5925 H       1  WATER21111    0.0119
     34 ****       -2.7333    3.3080   -0.3795 H       1  WATER21111    0.0160
     35 ****       -2.8980    2.4378    1.1591 H       1  WATER21111    0.0160
     36 ****       -5.1293    2.0155    0.4833 H       1  WATER21111    0.0362
     37 ****       -4.7848    2.4894   -1.1996 H       1  WATER21111    0.0368
     38 ****       -3.6896   -1.6153    1.0504 H       1  WATER21111    0.0064
     39 ****       -2.0569   -1.0550    1.4882 H       1  WATER21111    0.0002
     40 ****       -3.4585   -0.0068    1.7879 H       1  WATER21111   -0.0049
     41 ****        1.4321   -0.4126    1.7336 H       1  WATER21111    0.0077
     42 ****        2.1893    3.1971   -0.0238 H       1  WATER21111    0.0141
     43 ****        3.2244   -2.2156    2.0542 H       1  WATER21111    0.0107
     44 ****        4.1728    2.1780   -0.7570 H       1  WATER21111    0.0769
     45 ****        5.6157    0.2798   -1.8326 O.2     1  WATER21111   -0.2840
     46 ****       -0.2451    3.1050    0.6566 H       1  WATER21111    0.0085
     47 ****        0.0941    2.8614   -1.0733 H       1  WATER21111    0.0111
     48 ****        5.1875   -1.9374    0.3546 H       1  WATER21111    0.0172
     49 C49         3.2688   -1.4434    1.2515 C.3     1  WATER21111   -0.0169
     50 ****        3.8941   -3.0865   -0.0320 H       1  WATER21111    0.0103
     51 ****        3.7990   -0.5774    1.7095 H       1  WATER21111    0.0086
@<TRIPOS>BOND
     1     1     2    1
     2     2     3    1
     3     3    45    2
     4     3     5    2
     5     5     6    2
     6     6    11    1
     7     1    11    1
     8    10    11    1
     9    10    12    1
    10    12    13    1
    11    13    14    1
    12    14    19    1
    13    19    40    1
    14    19    39    1
    15    19    38    1
    16    14    15    1
    17    15    16    1
    18    16    17    1
    19    17    36    1
    20    17    18    1
    21    14    18    1
    22    18    21    2
    23    17    37    1
    24    16    35    1
    25    16    34    1
    26     9    15    1
    27     9    10    1
    28     8     9    1
    29     8    47    1
    30     7     8    1
    31     7    42    1
    32     6     7    1
    33     7     4    1
    34     8    46    1
    35     9    27    1
    36    15    33    1
    37    13    31    1
    38    13    32    1
    39    12    30    1
    40    12    29    1
    41    10    28    1
    42    11    20    1
    43    20    41    1
    44    20    26    1
    45    20    49    1
    46    49    43    1
    47    49    51    1
    48    24    49    1
    49    24    50    1
    50     2    24    1
    51    24    48    1
    52     5    44    1
    53     2    25    1
    54     1    23    1
    55     1    22    1
