@<TRIPOS>MOLECULE
75
 50 54 0 0 0
SMALL
GASTEIGER

@<TRIPOS>ATOM
      1 ****        2.3540   -1.1345   -1.6071 C.3     1  WATER21111    0.0086
      2 ****        3.8505   -1.3177   -1.2664 C.3     1  WATER21111   -0.0871
      3 C3          4.5222    0.0715   -1.2940 C.1     1  WATER21111    0.2735
      4 ****        1.8069    2.1800    1.3464 H       1  WATER21111    0.0186
      5 C5          3.6873    1.1962   -0.7727 C.1     1  WATER21111   -0.1160
      6 C5          2.3893    1.0682   -0.3899 C.2     1  WATER21111   -0.0438
      7 C6          1.6853    2.2518    0.2388 C.3     1  WATER21111    0.0271
      8 C7          0.1966    2.3930   -0.1059 C.3     1  WATER21111   -0.0023
      9 ****       -0.5827    1.0586   -0.0386 C.3     1  WATER21111   -0.0133
     10 ****        0.1299   -0.0367   -0.9123 C.3     1  WATER21111   -0.0098
     11 ****        1.6416   -0.2808   -0.4997 C.3     1  WATER21111   -0.0240
     12 ****       -0.7220   -1.3319   -1.0812 C.3     1  WATER21111   -0.0040
     13 ****       -2.2399   -1.1520   -1.3182 C.3     1  WATER21111    0.0221
     14 ****       -2.8868   -0.1267   -0.3524 C.3     1  WATER21111   -0.1179
     15 ****       -2.0584    1.2060   -0.4976 C.3     1  WATER21111   -0.0273
     16 ****       -2.9838    2.3178    0.0611 C.3     1  WATER21111   -0.0014
     17 ****       -4.4137    1.8722   -0.3236 C.3     1  WATER21111   -0.0515
     18 ****       -4.3108    0.3877   -0.7174 C.2     1  WATER21111    0.2325
     19 ****       -3.0022   -0.7229    1.0801 C.3     1  WATER21111    0.0549
     20 ****        1.8219   -1.0509    0.8615 C.3     1  WATER21111    0.1340
     21 ****       -5.2051   -0.2674   -1.2249 O.2     1  WATER21111   -0.2713
     22 ****        2.2517   -0.6560   -2.6065 H       1  WATER21111    0.0164
     23 ****        1.8874   -2.1385   -1.7120 H       1  WATER21111    0.0121
     24 C24         4.0197   -2.0163    0.1088 C.3     1  WATER21111    0.1293
     25 ****        4.3157   -1.9744   -2.0388 H       1  WATER21111    0.0457
     26 ****        1.2174   -1.9933    0.8604 H       1  WATER21111   -0.0185
     27 ****       -0.5791    0.7394    1.0304 H       1  WATER21111    0.0184
     28 ****        0.1902    0.3958   -1.9468 H       1  WATER21111    0.0123
     29 ****       -0.3372   -1.8977   -1.9609 H       1  WATER21111    0.0071
     30 ****       -0.5926   -2.0088   -0.2088 H       1  WATER21111    0.0063
     31 ****       -2.4126   -0.8440   -2.3745 H       1  WATER21111    0.0117
     32 ****       -2.7285   -2.1475   -1.2195 H       1  WATER21111    0.0180
     33 ****       -2.0024    1.4346   -1.5977 H       1  WATER21111    0.0121
     34 ****       -2.7471    3.3053   -0.3873 H       1  WATER21111    0.0164
     35 ****       -2.8864    2.4448    1.1593 H       1  WATER21111    0.0163
     36 ****       -5.1235    2.0019    0.5201 H       1  WATER21111    0.0363
     37 ****       -4.8088    2.4753   -1.1682 H       1  WATER21111    0.0370
     38 ****       -3.6696   -1.6097    1.0802 H       1  WATER21111    0.0063
     39 ****       -2.0282   -1.0534    1.4901 H       1  WATER21111   -0.0008
     40 ****       -3.4217    0.0008    1.8079 H       1  WATER21111   -0.0044
     41 ****        1.4339   -0.4455    1.7160 H       1  WATER21111    0.0152
     42 ****        2.1893    3.2027   -0.0533 H       1  WATER21111    0.0140
     43 ****        3.3041   -1.8469    2.0095 H       1  WATER21111    0.1249
     44 ****        4.2053    2.1562   -0.6922 H       1  WATER21111    0.0759
     45 ****        5.6592    0.2359   -1.7210 O.2     1  WATER21111   -0.2893
     46 ****       -0.2493    3.1242    0.6065 H       1  WATER21111    0.0085
     47 ****        0.1005    2.8520   -1.1163 H       1  WATER21111    0.0106
     48 ****        5.0907   -2.0070    0.4274 H       1  WATER21111    0.0249
     49 N49         3.2377   -1.3306    1.1450 N.3     1  WATER21111   -0.3471
     50 ****        3.7435   -3.0980    0.0035 H       1  WATER21111   -0.0171
@<TRIPOS>BOND
     1     1    22    1
     2     1    23    1
     3     1    11    1
     4    10    11    1
     5    10    28    1
     6    10    12    1
     7    12    30    1
     8    12    29    1
     9    12    13    1
    10    13    31    1
    11    13    32    1
    12    13    14    1
    13    14    15    1
    14    15    16    1
    15    16    34    1
    16    16    17    1
    17    17    18    1
    18    18    21    2
    19    14    18    1
    20    17    37    1
    21    17    36    1
    22    16    35    1
    23    15    33    1
    24     9    15    1
    25     9    27    1
    26     9    10    1
    27     8     9    1
    28     8    46    1
    29     8    47    1
    30     7     8    1
    31     7    42    1
    32     7     4    1
    33     6     7    1
    34     5     6    2
    35     3     5    2
    36     3    45    2
    37     2     3    1
    38     2    24    1
    39    24    48    1
    40    24    50    1
    41    24    49    1
    42    49    43    1
    43    20    49    1
    44    20    41    1
    45    20    26    1
    46    11    20    1
    47     2    25    1
    48     1     2    1
    49     5    44    1
    50     6    11    1
    51    14    19    1
    52    19    40    1
    53    19    39    1
    54    19    38    1
