@<TRIPOS>MOLECULE
76
 48 52 0 0 0
SMALL
GASTEIGER

@<TRIPOS>ATOM
      1 ****        2.3960   -1.0374   -1.7603 C.3     1  WATER21111    0.0073
      2 ****        3.7292   -1.3728   -1.0437 C.3     1  WATER21111   -0.0915
      3 C3          4.5550   -0.0722   -0.9895 C.1     1  WATER21111    0.2636
      4 ****        1.8565    2.4070    1.1375 H       1  WATER21111    0.0148
      5 C5          3.7476    1.1407   -0.6393 C.1     1  WATER21111   -0.1365
      6 C5          2.3971    1.1029   -0.4616 C.2     1  WATER21111   -0.0499
      7 C6          1.6856    2.3409    0.0350 C.3     1  WATER21111    0.0290
      8 C7          0.1789    2.4321   -0.2399 C.3     1  WATER21111   -0.0015
      9 ****       -0.5664    1.0816   -0.1188 C.3     1  WATER21111   -0.0132
     10 ****        0.1217    0.0100   -1.0376 C.3     1  WATER21111   -0.0015
     11 ****        1.6264   -0.2267   -0.6512 C.3     1  WATER21111   -0.0330
     12 ****       -0.7180   -1.2900   -1.2275 C.3     1  WATER21111   -0.0026
     13 ****       -2.2504   -1.1325   -1.3655 C.3     1  WATER21111    0.0221
     14 ****       -2.8566   -0.1540   -0.3272 C.3     1  WATER21111   -0.1171
     15 ****       -2.0694    1.2016   -0.4841 C.3     1  WATER21111   -0.0271
     16 ****       -2.9822    2.2763    0.1613 C.3     1  WATER21111   -0.0017
     17 ****       -4.4233    1.8066   -0.1434 C.3     1  WATER21111   -0.0515
     18 ****       -4.3126    0.3356   -0.5838 C.2     1  WATER21111    0.2324
     19 ****       -2.8643   -0.7952    1.0902 C.3     1  WATER21111    0.0547
     20 ****        1.9229   -1.0904    0.6347 C.3     1  WATER21111    0.0010
     21 ****       -5.2243   -0.3265   -1.0496 O.2     1  WATER21111   -0.2714
     22 ****        2.5347   -0.4646   -2.6997 H       1  WATER21111    0.0198
     23 ****        1.8773   -1.9724   -2.0547 H       1  WATER21111    0.0179
     24 C24         3.2713   -1.8112    0.3761 C.3     1  WATER21111   -0.0036
     25 ****        4.2853   -2.1842   -1.5554 H       1  WATER21111    0.0529
     26 ****        1.1314   -1.8392    0.8361 H       1  WATER21111    0.0152
     27 ****       -0.4857    0.7603    0.9468 H       1  WATER21111    0.0197
     28 ****        0.1608    0.4653   -2.0637 H       1  WATER21111    0.0110
     29 ****       -0.3721   -1.7969   -2.1584 H       1  WATER21111    0.0069
     30 ****       -0.5256   -2.0133   -0.4058 H       1  WATER21111    0.0074
     31 ****       -2.4925   -0.7911   -2.3978 H       1  WATER21111    0.0110
     32 ****       -2.7145   -2.1401   -1.2741 H       1  WATER21111    0.0182
     33 ****       -2.0858    1.4596   -1.5791 H       1  WATER21111    0.0119
     34 ****       -2.7969    3.2802   -0.2746 H       1  WATER21111    0.0159
     35 ****       -2.8171    2.3778    1.2540 H       1  WATER21111    0.0161
     36 ****       -5.0793    1.8966    0.7477 H       1  WATER21111    0.0362
     37 ****       -4.8855    2.4217   -0.9441 H       1  WATER21111    0.0369
     38 ****       -3.5060   -1.7006    1.1044 H       1  WATER21111    0.0064
     39 ****       -1.8577   -1.1088    1.4280 H       1  WATER21111    0.0001
     40 ****       -3.2563   -0.1056    1.8650 H       1  WATER21111   -0.0048
     41 ****        1.9739   -0.4651    1.5501 H       1  WATER21111    0.0133
     42 ****        2.1626    3.2507   -0.3998 H       1  WATER21111    0.0155
     43 ****        4.3147    2.0657   -0.5109 H       1  WATER21111    0.0782
     44 ****        5.7584   -0.0353   -1.2123 O.2     1  WATER21111   -0.2833
     45 ****       -0.2504    3.1638    0.4821 H       1  WATER21111    0.0083
     46 ****        0.0219    2.8729   -1.2510 H       1  WATER21111    0.0105
     47 ****        4.0208   -1.5693    1.1572 H       1  WATER21111    0.0188
     48 ****        3.1416   -2.9138    0.4101 H       1  WATER21111    0.0169
@<TRIPOS>BOND
     1     1    22    1
     2     1    11    1
     3    11    10    1
     4     9    10    1
     5     9    27    1
     6     9    15    1
     7    15    33    1
     8    15    16    1
     9    16    17    1
    10    17    37    1
    11    17    36    1
    12    18    17    1
    13    18    21    2
    14    14    18    1
    15    13    14    1
    16    13    31    1
    17    13    32    1
    18    12    13    1
    19    10    12    1
    20    12    29    1
    21    12    30    1
    22    14    19    1
    23    19    40    1
    24    19    38    1
    25    19    39    1
    26    15    14    1
    27    16    34    1
    28    16    35    1
    29     8     9    1
    30     8    45    1
    31     7     8    1
    32     7    42    1
    33     6     7    1
    34    11     6    1
    35     5     6    2
    36     5    43    1
    37     3     5    2
    38     3    44    2
    39     2     3    1
    40     2    25    1
    41     1     2    1
    42     2    24    1
    43    24    47    1
    44    24    48    1
    45    24    20    1
    46    20    41    1
    47    11    20    1
    48    20    26    1
    49     7     4    1
    50     8    46    1
    51    10    28    1
    52     1    23    1
